Version 4.1
SHEET 1 1004 680
WIRE 160 -48 0 -48
WIRE 0 -32 0 -48
WIRE -96 64 -336 64
WIRE -96 128 -96 64
WIRE -48 128 -96 128
FLAG -336 144 0
FLAG 0 144 0
FLAG 160 32 0
SYMBOL nmos -48 48 R0
SYMATTR InstName M1
SYMBOL voltage -336 48 R0
WINDOW 123 0 0 Left 0
WINDOW 39 24 124 Left 2
SYMATTR InstName V1
SYMATTR Value 5
SYMATTR SpiceLine Rser=0
SYMBOL voltage 160 -64 R0
WINDOW 123 0 0 Left 0
WINDOW 39 24 124 Left 2
SYMATTR InstName V2
SYMATTR Value 10
SYMATTR SpiceLine Rser=0
SYMBOL res -16 -48 R0
SYMATTR InstName R1
SYMATTR Value 0.03
TEXT -56 368 Left 2 !.lib "D:\\WORKSPACE\\BSIM-Python-Implementation\\model\\IFX_CoolSiC_Gen1_Auto_750V.lib"
TEXT -56 312 Left 2 ;.tran 0 1 0 0.01
TEXT -56 344 Left 2 !.dc V1 0 10 1
