Version 4.1
SHEET 1 1004 680
WIRE 720 -64 544 -64
WIRE 544 48 544 16
WIRE 720 48 720 -64
WIRE 368 128 256 128
WIRE 496 128 448 128
FLAG 256 208 0
FLAG 720 128 0
FLAG 544 144 0
SYMBOL nmos 496 48 R0
SYMATTR InstName M2
SYMATTR Value IPP111N15N3
SYMBOL res 464 112 R90
WINDOW 0 0 56 VBottom 2
WINDOW 3 32 56 VTop 2
SYMATTR InstName R2
SYMATTR Value 7
SYMBOL res 560 32 R180
WINDOW 0 36 76 Left 2
WINDOW 3 36 40 Left 2
SYMATTR InstName R3
SYMATTR Value 0.35
SYMBOL voltage 256 112 R0
WINDOW 123 0 0 Left 0
WINDOW 39 24 124 Left 2
WINDOW 0 -111 56 Left 2
SYMATTR SpiceLine Rser=0
SYMATTR InstName VGS
SYMATTR Value 10
SYMBOL voltage 720 32 R0
WINDOW 123 0 0 Left 0
WINDOW 39 24 124 Left 2
WINDOW 0 46 47 Left 2
SYMATTR SpiceLine Rser=0
SYMATTR InstName VDS
SYMATTR Value 100
TEXT -56 368 Left 2 !.lib "D:\\WORKSPACE\\BSIM-Python-Implementation\\model\\IFX_CoolSiC_Gen1_Auto_750V.lib"
TEXT -56 344 Left 2 !.dc VGS 0 10 1 VDS 0 100 5
