Version 4.1
SHEET 1 1680 680
WIRE 480 -208 320 -208
WIRE 496 -208 480 -208
WIRE 496 -96 496 -208
WIRE 320 -80 320 -128
WIRE 320 -80 304 -80
WIRE 304 16 304 -80
WIRE 304 16 176 16
WIRE 400 112 384 112
WIRE 496 112 400 112
WIRE 592 112 576 112
WIRE 592 368 592 112
WIRE 592 368 512 368
WIRE 176 384 176 16
WIRE 304 384 176 384
WIRE 576 400 512 400
WIRE 576 528 576 400
FLAG 384 192 0
FLAG 496 -16 0
FLAG 576 528 0
FLAG 400 112 VGS
FLAG 480 -208 VDS
SYMBOL res 592 96 R90
WINDOW 0 0 56 VBottom 2
WINDOW 3 32 56 VTop 2
SYMATTR InstName R1
SYMATTR Value 7
SYMBOL res 336 -112 R180
WINDOW 0 36 76 Left 2
WINDOW 3 36 40 Left 2
SYMATTR InstName R4
SYMATTR Value 0.35
SYMBOL voltage 384 96 R0
WINDOW 123 0 0 Left 0
WINDOW 39 24 124 Left 2
WINDOW 0 -111 56 Left 2
SYMATTR SpiceLine Rser=0
SYMATTR InstName VGS
SYMATTR Value 10
SYMBOL voltage 496 -112 R0
WINDOW 123 0 0 Left 0
WINDOW 39 24 124 Left 2
WINDOW 0 46 47 Left 2
SYMATTR SpiceLine Rser=0
SYMATTR InstName VDS
SYMATTR Value 100
SYMBOL IAUA170N10S5N031_L1 400 384 R0
SYMATTR InstName U1
SYMBOL IAUA170N10S5N031_L0 1536 16 R0
SYMATTR InstName U2
TEXT 688 376 Left 2 !.dc VGS 0 10 2 VDS 0 100 10
