Version 4.1
SHEET 1 1488 680
WIRE 112 -224 -48 -224
WIRE 128 -224 112 -224
WIRE 128 -112 128 -224
WIRE 1312 -112 1152 -112
WIRE 1328 -112 1312 -112
WIRE -48 -96 -48 -144
WIRE -48 -96 -496 -96
WIRE -48 -32 -144 -32
WIRE -48 -16 -48 -32
WIRE 1152 0 1152 -32
WIRE 1328 0 1328 -112
WIRE -144 80 -144 -32
WIRE -144 80 -208 80
WIRE 976 80 864 80
WIRE 1104 80 1056 80
WIRE -496 96 -496 -96
WIRE -416 96 -496 96
WIRE -960 112 -976 112
WIRE -864 112 -960 112
WIRE -560 112 -784 112
WIRE -144 112 -144 80
WIRE -144 112 -208 112
WIRE -416 128 -432 128
WIRE -560 144 -560 112
WIRE -432 144 -432 128
WIRE -432 144 -560 144
WIRE -144 144 -144 112
WIRE -144 144 -208 144
FLAG 864 160 0
FLAG 1328 80 0
FLAG 1152 96 0
FLAG 1312 -112 VDS
FLAG -976 192 0
FLAG 128 -32 0
FLAG -48 -16 0
FLAG -960 112 VGS
FLAG 112 -224 VDS
SYMBOL res 1072 64 R90
WINDOW 0 0 56 VBottom 2
WINDOW 3 32 56 VTop 2
SYMATTR InstName R2
SYMATTR Value 7
SYMBOL res 1168 -16 R180
WINDOW 0 36 76 Left 2
WINDOW 3 36 40 Left 2
SYMATTR InstName R3
SYMATTR Value 0.35
SYMBOL nmos 1104 0 R0
SYMATTR InstName M1
SYMBOL IAUA180N10S5N029 -320 112 R0
SYMATTR InstName U1
SYMBOL res -768 96 R90
WINDOW 0 0 56 VBottom 2
WINDOW 3 32 56 VTop 2
SYMATTR InstName R1
SYMATTR Value 7
SYMBOL res -32 -128 R180
WINDOW 0 36 76 Left 2
WINDOW 3 36 40 Left 2
SYMATTR InstName R4
SYMATTR Value 0.35
SYMBOL voltage -976 96 R0
WINDOW 123 0 0 Left 0
WINDOW 39 24 124 Left 2
WINDOW 0 -111 56 Left 2
SYMATTR SpiceLine Rser=0
SYMATTR InstName VGS
SYMATTR Value 10
SYMBOL voltage 128 -128 R0
WINDOW 123 0 0 Left 0
WINDOW 39 24 124 Left 2
WINDOW 0 46 47 Left 2
SYMATTR SpiceLine Rser=0
SYMATTR InstName VDS
SYMATTR Value 100
TEXT 1096 304 Left 2 !.dc VGS 0 10 1 VDS 0 100 5
TEXT 1104 248 Left 2 ;.inc OptiMOS_5_100V_LTspice.lib
