Version 4.1
SHEET 1 1680 680
WIRE 336 48 112 48
WIRE 352 48 336 48
WIRE 112 80 112 48
WIRE 352 160 352 48
WIRE 112 224 112 160
WIRE -240 304 -256 304
WIRE -144 304 -240 304
WIRE 64 304 -64 304
WIRE 112 480 112 320
FLAG -256 384 0
FLAG 352 240 0
FLAG 112 480 0
FLAG -240 304 VGS
FLAG 336 48 VDS
SYMBOL res -48 288 R90
WINDOW 0 0 56 VBottom 2
WINDOW 3 32 56 VTop 2
SYMATTR InstName R1
SYMATTR Value 7
SYMBOL res 128 176 R180
WINDOW 0 36 76 Left 2
WINDOW 3 36 40 Left 2
SYMATTR InstName R4
SYMATTR Value 0.35
SYMBOL voltage -256 288 R0
WINDOW 123 0 0 Left 0
WINDOW 39 24 124 Left 2
WINDOW 0 -111 56 Left 2
SYMATTR SpiceLine Rser=0
SYMATTR InstName VGS
SYMATTR Value 10
SYMBOL voltage 352 144 R0
WINDOW 123 0 0 Left 0
WINDOW 39 24 124 Left 2
WINDOW 0 46 47 Left 2
SYMATTR SpiceLine Rser=0
SYMATTR InstName VDS
SYMATTR Value 100
SYMBOL nmos 64 224 R0
SYMATTR InstName M1
TEXT 200 456 Left 2 !.dc VGS 0 10 2 VDS 0 100 10
TEXT 656 72 Left 2 !.lib OptiMOS_5_100V_LTspice.lib
