Version 4.1
SHEET 1 1488 680
WIRE 112 -224 -48 -224
WIRE 128 -224 112 -224
WIRE 128 -112 128 -224
WIRE -48 -96 -48 -144
WIRE -48 -96 -496 -96
WIRE -48 -32 -144 -32
WIRE -48 -16 -48 -32
WIRE -144 80 -144 -32
WIRE -144 80 -208 80
WIRE -496 96 -496 -96
WIRE -416 96 -496 96
WIRE -960 112 -976 112
WIRE -864 112 -960 112
WIRE -560 112 -784 112
WIRE -416 128 -432 128
WIRE -560 144 -560 112
WIRE -432 144 -432 128
WIRE -432 144 -560 144
FLAG -976 192 0
FLAG 128 -32 0
FLAG -48 -16 0
FLAG -960 112 VGS
FLAG 112 -224 VDS
SYMBOL res -768 96 R90
WINDOW 0 0 56 VBottom 2
WINDOW 3 32 56 VTop 2
SYMATTR InstName R1
SYMATTR Value 7
SYMBOL res -32 -128 R180
WINDOW 0 36 76 Left 2
WINDOW 3 36 40 Left 2
SYMATTR InstName R4
SYMATTR Value 0.35
SYMBOL voltage -976 96 R0
WINDOW 123 0 0 Left 0
WINDOW 39 24 124 Left 2
WINDOW 0 -111 56 Left 2
SYMATTR SpiceLine Rser=0
SYMATTR InstName VGS
SYMATTR Value 10
SYMBOL voltage 128 -128 R0
WINDOW 123 0 0 Left 0
WINDOW 39 24 124 Left 2
WINDOW 0 46 47 Left 2
SYMATTR SpiceLine Rser=0
SYMATTR InstName VDS
SYMATTR Value 100
SYMBOL IAUT300N10S5N015 -320 112 R0
SYMATTR InstName U1
TEXT -624 304 Left 2 !.dc VGS 0 10 2 VDS 0 100 10
