* SPICE3 file created from dualRailAS.ext - technology: scmos
*
* drain/source ordering enforced by hand
*

.subckt NAND2X1_LOC a_36_24# Y VSS VDD A B
X0 a_36_24# A VSS VSS NMOS_MAGIC ad=0.6p pd=4.6u as=1p ps=5u w=2u l=0.2u
X1 Y B a_36_24# VSS NMOS_MAGIC ad=1p pd=5u as=0p ps=0u w=2u l=0.2u
X2 Y B VDD VDD PMOS_MAGIC ad=2p pd=10u as=1.2p ps=5.2u w=2u l=0.2u
X3 Y A VDD VDD PMOS_MAGIC ad=0p pd=0u as=0p ps=0u w=2u l=0.2u
C0 B Y 0.10fF
C1 Y a_36_24# 0.01fF
C2 VDD A 0.20fF
C3 VDD B 0.27fF
C4 A B 0.22fF
C5 VDD Y 0.57fF
C6 A Y 0.08fF
C7 Y VSS 0.20fF
C8 B VSS 0.19fF
C9 A VSS 0.30fF
C10 VDD VSS 1.73fF
.ends

.subckt INVX1_LOC Y VSS VDD A
X0 Y A VSS VSS NMOS_MAGIC ad=0.5p pd=3u as=0.5p ps=3u w=1u l=0.2u
X1 Y A VDD VDD PMOS_MAGIC ad=1p pd=5u as=1p ps=5u w=2u l=0.2u

C0 VDD A 0.20fF
C1 VDD Y 0.39fF
C2 A Y 0.08fF
C3 Y VSS 0.07fF
C4 A VSS 0.37fF
C5 VDD VSS 1.52fF
.ends 

.subckt NOR2X1_LOC a_36_216# Y VSS VDD A B
X0 Y B a_36_216# VDD PMOS_MAGIC ad=2p pd=9u as=1.2p ps=8.6u w=4u l=0.2u
X1 Y B VSS VSS NMOS_MAGIC ad=1p pd=6u as=0.6p ps=3.2u w=1u l=0.2u
X2 Y A VSS VSS NMOS_MAGIC ad=0p pd=0u as=0p ps=0u w=1u l=0.2u
X3 a_36_216# A VDD VDD PMOS_MAGIC ad=0p pd=0u as=2p ps=9u w=4u l=0.2u

C0 VDD A 0.07fF
C1 VDD B 0.12fF
C2 A B 0.18fF
C3 VDD Y 0.17fF
C4 A Y 0.07fF
C5 B Y 0.12fF
C6 a_36_216# Y 0.01fF
C7 Y VSS 0.11fF
C8 B VSS 0.28fF
C9 A VSS 0.37fF
C10 VDD VSS 1.73fF
.ends

.subckt AES_SBOX INPUT_0 INPUT_1 INPUT_2 INPUT_3 INPUT_4 INPUT_5 INPUT_6 INPUT_7 
+ D_INPUT_0 D_INPUT_1 D_INPUT_2 D_INPUT_3 D_INPUT_4 D_INPUT_5 D_INPUT_6 D_INPUT_7 
+ GATE_222 GATE_366 GATE_479 GATE_579 GATE_662 GATE_741 GATE_811 GATE_865 
+ D_GATE_222 D_GATE_366 D_GATE_479 D_GATE_579 D_GATE_662 D_GATE_741 D_GATE_811 D_GATE_865 
+ VDD VSS 

XNAND2X1_LOC_580 NAND2X1_LOC_580/a_36_24# GATE_579 VSS VDD INVX1_LOC_240/Y INVX1_LOC_242/Y
+ NAND2X1_LOC
XNAND2X1_LOC_591 NAND2X1_LOC_591/a_36_24# NOR2X1_LOC_718/B VSS VDD INVX1_LOC_50/Y
+ NOR2X1_LOC_590/Y NAND2X1_LOC
XNOR2X1_LOC_815 NOR2X1_LOC_815/a_36_216# NOR2X1_LOC_815/Y VSS VDD NOR2X1_LOC_815/A
+ INVX1_LOC_2/A NOR2X1_LOC
XNOR2X1_LOC_804 NOR2X1_LOC_804/a_36_216# NOR2X1_LOC_808/A VSS VDD NOR2X1_LOC_795/Y
+ NOR2X1_LOC_804/B NOR2X1_LOC
XNOR2X1_LOC_826 NOR2X1_LOC_826/a_36_216# NOR2X1_LOC_826/Y VSS VDD INVX1_LOC_58/A INVX1_LOC_42/A
+ NOR2X1_LOC
XNOR2X1_LOC_848 NOR2X1_LOC_848/a_36_216# NOR2X1_LOC_848/Y VSS VDD INVX1_LOC_315/Y
+ NOR2X1_LOC_846/Y NOR2X1_LOC
XNOR2X1_LOC_859 NOR2X1_LOC_859/a_36_216# NOR2X1_LOC_859/Y VSS VDD NOR2X1_LOC_859/A
+ NOR2X1_LOC_848/Y NOR2X1_LOC
XNOR2X1_LOC_837 NOR2X1_LOC_837/a_36_216# NOR2X1_LOC_837/Y VSS VDD NOR2X1_LOC_837/A
+ NOR2X1_LOC_837/B NOR2X1_LOC
XINVX1_LOC_210 INVX1_LOC_210/Y VSS VDD INVX1_LOC_210/A INVX1_LOC
XINVX1_LOC_232 INVX1_LOC_232/Y VSS VDD INVX1_LOC_232/A INVX1_LOC
XINVX1_LOC_221 INVX1_LOC_221/Y VSS VDD INVX1_LOC_221/A INVX1_LOC
XINVX1_LOC_243 INVX1_LOC_243/Y VSS VDD INVX1_LOC_243/A INVX1_LOC
XNAND2X1_LOC_10 NAND2X1_LOC_10/a_36_24# INVX1_LOC_9/A VSS VDD INVX1_LOC_7/A NAND2X1_LOC_9/Y
+ NAND2X1_LOC
XNAND2X1_LOC_32 NAND2X1_LOC_32/a_36_24# NOR2X1_LOC_34/A VSS VDD NOR2X1_LOC_87/B INVX1_LOC_21/A
+ NAND2X1_LOC
XNAND2X1_LOC_43 NAND2X1_LOC_43/a_36_24# NOR2X1_LOC_195/A VSS VDD INVX1_LOC_17/A INVX1_LOC_31/A
+ NAND2X1_LOC
XNAND2X1_LOC_21 NAND2X1_LOC_21/a_36_24# NAND2X1_LOC_21/Y VSS VDD INPUT_4 D_INPUT_5
+ NAND2X1_LOC
XINVX1_LOC_254 INVX1_LOC_254/Y VSS VDD INVX1_LOC_254/A INVX1_LOC
XINVX1_LOC_265 INVX1_LOC_265/Y VSS VDD INVX1_LOC_265/A INVX1_LOC
XINVX1_LOC_276 INVX1_LOC_276/Y VSS VDD INVX1_LOC_276/A INVX1_LOC
XINVX1_LOC_298 INVX1_LOC_298/Y VSS VDD INVX1_LOC_298/A INVX1_LOC
XINVX1_LOC_287 INVX1_LOC_287/Y VSS VDD INVX1_LOC_287/A INVX1_LOC
XNOR2X1_LOC_601 NOR2X1_LOC_601/a_36_216# NOR2X1_LOC_601/Y VSS VDD INVX1_LOC_36/A NOR2X1_LOC_15/Y
+ NOR2X1_LOC
XNOR2X1_LOC_678 NOR2X1_LOC_678/a_36_216# INVX1_LOC_272/A VSS VDD NOR2X1_LOC_678/A
+ INVX1_LOC_12/Y NOR2X1_LOC
XNOR2X1_LOC_667 NOR2X1_LOC_667/a_36_216# NOR2X1_LOC_667/Y VSS VDD NOR2X1_LOC_667/A
+ INVX1_LOC_49/Y NOR2X1_LOC
XNOR2X1_LOC_645 NOR2X1_LOC_645/a_36_216# INVX1_LOC_264/A VSS VDD INVX1_LOC_250/A INVX1_LOC_248/A
+ NOR2X1_LOC
XNOR2X1_LOC_634 NOR2X1_LOC_634/a_36_216# NOR2X1_LOC_634/Y VSS VDD NOR2X1_LOC_634/A
+ NOR2X1_LOC_634/B NOR2X1_LOC
XNAND2X1_LOC_54 NAND2X1_LOC_54/a_36_24# INVX1_LOC_39/A VSS VDD INPUT_0 INPUT_1
+ NAND2X1_LOC
XNAND2X1_LOC_65 NAND2X1_LOC_65/a_36_24# NOR2X1_LOC_201/A VSS VDD NAND2X1_LOC_63/Y
+ INVX1_LOC_50/Y NAND2X1_LOC
XNAND2X1_LOC_87 NAND2X1_LOC_87/a_36_24# NOR2X1_LOC_88/A VSS VDD NOR2X1_LOC_32/B NOR2X1_LOC_52/B
+ NAND2X1_LOC
XNAND2X1_LOC_98 NAND2X1_LOC_98/a_36_24# INVX1_LOC_59/A VSS VDD NOR2X1_LOC_93/Y NOR2X1_LOC_96/Y
+ NAND2X1_LOC
XNAND2X1_LOC_76 NAND2X1_LOC_76/a_36_24# INVX1_LOC_55/A VSS VDD NOR2X1_LOC_74/Y NOR2X1_LOC_75/Y
+ NAND2X1_LOC
XNOR2X1_LOC_656 NOR2X1_LOC_656/a_36_216# NOR2X1_LOC_656/Y VSS VDD NOR2X1_LOC_647/Y
+ NOR2X1_LOC_216/B NOR2X1_LOC
XNOR2X1_LOC_623 NOR2X1_LOC_623/a_36_216# NOR2X1_LOC_624/A VSS VDD NOR2X1_LOC_620/Y
+ NOR2X1_LOC_623/B NOR2X1_LOC
XNOR2X1_LOC_612 NOR2X1_LOC_612/a_36_216# NOR2X1_LOC_612/Y VSS VDD INVX1_LOC_251/Y
+ NOR2X1_LOC_612/B NOR2X1_LOC
XNOR2X1_LOC_689 NOR2X1_LOC_689/a_36_216# NOR2X1_LOC_689/Y VSS VDD NOR2X1_LOC_689/A
+ INVX1_LOC_22/A NOR2X1_LOC
XNAND2X1_LOC_409 NAND2X1_LOC_409/a_36_24# NOR2X1_LOC_460/A VSS VDD NOR2X1_LOC_828/B
+ INVX1_LOC_174/Y NAND2X1_LOC
XNOR2X1_LOC_453 NOR2X1_LOC_453/a_36_216# NOR2X1_LOC_453/Y VSS VDD INVX1_LOC_189/Y
+ NOR2X1_LOC_448/Y NOR2X1_LOC
XNOR2X1_LOC_486 NOR2X1_LOC_486/a_36_216# NOR2X1_LOC_486/Y VSS VDD NOR2X1_LOC_705/B
+ NOR2X1_LOC_486/B NOR2X1_LOC
XNOR2X1_LOC_431 NOR2X1_LOC_431/a_36_216# NOR2X1_LOC_431/Y VSS VDD INVX1_LOC_118/A
+ INVX1_LOC_54/A NOR2X1_LOC
XNOR2X1_LOC_464 NOR2X1_LOC_464/a_36_216# NOR2X1_LOC_464/Y VSS VDD NOR2X1_LOC_458/Y
+ NOR2X1_LOC_464/B NOR2X1_LOC
XNOR2X1_LOC_475 NOR2X1_LOC_475/a_36_216# NOR2X1_LOC_479/B VSS VDD NOR2X1_LOC_475/A
+ INVX1_LOC_172/Y NOR2X1_LOC
XNOR2X1_LOC_497 NOR2X1_LOC_497/a_36_216# NOR2X1_LOC_497/Y VSS VDD NOR2X1_LOC_71/Y
+ INVX1_LOC_17/Y NOR2X1_LOC
XNOR2X1_LOC_420 NOR2X1_LOC_420/a_36_216# NOR2X1_LOC_420/Y VSS VDD NOR2X1_LOC_536/A
+ INVX1_LOC_58/A NOR2X1_LOC
XNOR2X1_LOC_442 NOR2X1_LOC_442/a_36_216# INVX1_LOC_184/A VSS VDD INVX1_LOC_64/A INVX1_LOC_30/A
+ NOR2X1_LOC
XNAND2X1_LOC_206 NAND2X1_LOC_206/a_36_24# NAND2X1_LOC_206/Y VSS VDD INVX1_LOC_110/Y
+ NAND2X1_LOC_206/B NAND2X1_LOC
XNAND2X1_LOC_217 NAND2X1_LOC_217/a_36_24# NAND2X1_LOC_218/B VSS VDD INVX1_LOC_74/Y
+ NAND2X1_LOC_141/Y NAND2X1_LOC
XNAND2X1_LOC_239 NAND2X1_LOC_239/a_36_24# INVX1_LOC_119/A VSS VDD INVX1_LOC_37/A NOR2X1_LOC_590/A
+ NAND2X1_LOC
XNAND2X1_LOC_228 NAND2X1_LOC_228/a_36_24# NAND2X1_LOC_341/A VSS VDD NOR2X1_LOC_7/Y
+ NOR2X1_LOC_52/Y NAND2X1_LOC
XNOR2X1_LOC_261 NOR2X1_LOC_261/a_36_216# NOR2X1_LOC_261/Y VSS VDD NOR2X1_LOC_261/A
+ INVX1_LOC_63/Y NOR2X1_LOC
XNOR2X1_LOC_272 NOR2X1_LOC_272/a_36_216# NOR2X1_LOC_272/Y VSS VDD INVX1_LOC_32/A INVX1_LOC_22/A
+ NOR2X1_LOC
XNOR2X1_LOC_250 NOR2X1_LOC_250/a_36_216# NOR2X1_LOC_250/Y VSS VDD NOR2X1_LOC_250/A
+ INVX1_LOC_49/Y NOR2X1_LOC
XNOR2X1_LOC_294 NOR2X1_LOC_294/a_36_216# NOR2X1_LOC_294/Y VSS VDD INVX1_LOC_135/A
+ INVX1_LOC_9/A NOR2X1_LOC
XNOR2X1_LOC_283 NOR2X1_LOC_283/a_36_216# INVX1_LOC_132/A VSS VDD NOR2X1_LOC_226/A
+ INVX1_LOC_20/A NOR2X1_LOC
XNAND2X1_LOC_795 NAND2X1_LOC_795/a_36_24# NAND2X1_LOC_795/Y VSS VDD NAND2X1_LOC_785/Y
+ INVX1_LOC_304/Y NAND2X1_LOC
XNAND2X1_LOC_773 NAND2X1_LOC_773/a_36_24# NAND2X1_LOC_773/Y VSS VDD INVX1_LOC_293/Y
+ NAND2X1_LOC_773/B NAND2X1_LOC
XNAND2X1_LOC_751 NAND2X1_LOC_751/a_36_24# NOR2X1_LOC_789/A VSS VDD INVX1_LOC_2/Y NOR2X1_LOC_750/Y
+ NAND2X1_LOC
XNAND2X1_LOC_784 NAND2X1_LOC_784/a_36_24# NAND2X1_LOC_796/B VSS VDD NAND2X1_LOC_784/A
+ NAND2X1_LOC_778/Y NAND2X1_LOC
XNAND2X1_LOC_740 NAND2X1_LOC_740/a_36_24# NAND2X1_LOC_740/Y VSS VDD NAND2X1_LOC_740/A
+ NAND2X1_LOC_740/B NAND2X1_LOC
XNAND2X1_LOC_762 NAND2X1_LOC_762/a_36_24# NAND2X1_LOC_763/B VSS VDD INPUT_6 NAND2X1_LOC_11/Y
+ NAND2X1_LOC
XINVX1_LOC_6 INVX1_LOC_6/Y VSS VDD INVX1_LOC_6/A INVX1_LOC
XNAND2X1_LOC_570 NAND2X1_LOC_570/a_36_24# NAND2X1_LOC_570/Y VSS VDD NAND2X1_LOC_562/Y
+ NAND2X1_LOC_563/Y NAND2X1_LOC
XNAND2X1_LOC_592 NAND2X1_LOC_592/a_36_24# INVX1_LOC_245/A VSS VDD NOR2X1_LOC_423/Y
+ NOR2X1_LOC_589/Y NAND2X1_LOC
XNAND2X1_LOC_581 NAND2X1_LOC_581/a_36_24# NAND2X1_LOC_581/Y VSS VDD INPUT_6 NAND2X1_LOC_3/B
+ NAND2X1_LOC
XNOR2X1_LOC_816 NOR2X1_LOC_816/a_36_216# NOR2X1_LOC_816/Y VSS VDD NOR2X1_LOC_816/A
+ INVX1_LOC_38/A NOR2X1_LOC
XNOR2X1_LOC_805 NOR2X1_LOC_805/a_36_216# NOR2X1_LOC_807/B VSS VDD NOR2X1_LOC_793/Y
+ INVX1_LOC_307/Y NOR2X1_LOC
XNOR2X1_LOC_849 NOR2X1_LOC_849/a_36_216# NOR2X1_LOC_859/A VSS VDD NOR2X1_LOC_849/A
+ NOR2X1_LOC_844/Y NOR2X1_LOC
XNOR2X1_LOC_838 NOR2X1_LOC_838/a_36_216# NOR2X1_LOC_852/B VSS VDD NOR2X1_LOC_837/Y
+ INVX1_LOC_310/Y NOR2X1_LOC
XNOR2X1_LOC_827 NOR2X1_LOC_827/a_36_216# INVX1_LOC_310/A VSS VDD INVX1_LOC_90/A INVX1_LOC_31/Y
+ NOR2X1_LOC
XINVX1_LOC_255 INVX1_LOC_255/Y VSS VDD INVX1_LOC_255/A INVX1_LOC
XINVX1_LOC_200 INVX1_LOC_200/Y VSS VDD INVX1_LOC_200/A INVX1_LOC
XINVX1_LOC_233 INVX1_LOC_233/Y VSS VDD INVX1_LOC_233/A INVX1_LOC
XINVX1_LOC_222 INVX1_LOC_222/Y VSS VDD INVX1_LOC_222/A INVX1_LOC
XINVX1_LOC_266 INVX1_LOC_266/Y VSS VDD INVX1_LOC_266/A INVX1_LOC
XINVX1_LOC_211 INVX1_LOC_211/Y VSS VDD INVX1_LOC_211/A INVX1_LOC
XINVX1_LOC_277 INVX1_LOC_277/Y VSS VDD INVX1_LOC_277/A INVX1_LOC
XINVX1_LOC_244 INVX1_LOC_244/Y VSS VDD INVX1_LOC_244/A INVX1_LOC
XNAND2X1_LOC_55 NAND2X1_LOC_55/a_36_24# INVX1_LOC_41/A VSS VDD INVX1_LOC_3/A INVX1_LOC_39/A
+ NAND2X1_LOC
XNAND2X1_LOC_66 NAND2X1_LOC_66/a_36_24# NOR2X1_LOC_67/A VSS VDD INVX1_LOC_2/A INVX1_LOC_20/A
+ NAND2X1_LOC
XNAND2X1_LOC_77 NAND2X1_LOC_77/a_36_24# NOR2X1_LOC_78/A VSS VDD INVX1_LOC_13/A INVX1_LOC_39/A
+ NAND2X1_LOC
XNAND2X1_LOC_33 NAND2X1_LOC_33/a_36_24# NAND2X1_LOC_33/Y VSS VDD NOR2X1_LOC_20/Y NOR2X1_LOC_24/Y
+ NAND2X1_LOC
XNAND2X1_LOC_44 NAND2X1_LOC_44/a_36_24# INVX1_LOC_33/A VSS VDD NAND2X1_LOC_36/A NAND2X1_LOC_30/Y
+ NAND2X1_LOC
XNAND2X1_LOC_22 NAND2X1_LOC_22/a_36_24# INVX1_LOC_17/A VSS VDD NAND2X1_LOC_1/Y NAND2X1_LOC_21/Y
+ NAND2X1_LOC
XNAND2X1_LOC_11 NAND2X1_LOC_11/a_36_24# NAND2X1_LOC_11/Y VSS VDD D_INPUT_4 INPUT_5
+ NAND2X1_LOC
XINVX1_LOC_299 INVX1_LOC_299/Y VSS VDD INVX1_LOC_299/A INVX1_LOC
XINVX1_LOC_288 INVX1_LOC_288/Y VSS VDD INVX1_LOC_288/A INVX1_LOC
XNOR2X1_LOC_635 NOR2X1_LOC_635/a_36_216# NOR2X1_LOC_639/B VSS VDD NOR2X1_LOC_635/A
+ NOR2X1_LOC_635/B NOR2X1_LOC
XNOR2X1_LOC_657 NOR2X1_LOC_657/a_36_216# NOR2X1_LOC_657/Y VSS VDD NOR2X1_LOC_510/Y
+ NOR2X1_LOC_657/B NOR2X1_LOC
XNOR2X1_LOC_679 NOR2X1_LOC_679/a_36_216# NOR2X1_LOC_679/Y VSS VDD INVX1_LOC_272/Y
+ NOR2X1_LOC_679/B NOR2X1_LOC
XNOR2X1_LOC_602 NOR2X1_LOC_602/a_36_216# INVX1_LOC_248/A VSS VDD NOR2X1_LOC_602/A
+ NOR2X1_LOC_602/B NOR2X1_LOC
XNAND2X1_LOC_99 NAND2X1_LOC_99/a_36_24# NAND2X1_LOC_99/Y VSS VDD NAND2X1_LOC_99/A
+ INVX1_LOC_60/Y NAND2X1_LOC
XNAND2X1_LOC_88 NAND2X1_LOC_88/a_36_24# NOR2X1_LOC_100/A VSS VDD INVX1_LOC_2/Y NOR2X1_LOC_87/Y
+ NAND2X1_LOC
XNOR2X1_LOC_646 NOR2X1_LOC_646/a_36_216# NOR2X1_LOC_647/A VSS VDD NOR2X1_LOC_646/A
+ NOR2X1_LOC_646/B NOR2X1_LOC
XNOR2X1_LOC_668 NOR2X1_LOC_668/a_36_216# NOR2X1_LOC_668/Y VSS VDD INVX1_LOC_89/A INVX1_LOC_19/A
+ NOR2X1_LOC
XNOR2X1_LOC_613 NOR2X1_LOC_613/a_36_216# NOR2X1_LOC_613/Y VSS VDD INVX1_LOC_42/A INVX1_LOC_30/A
+ NOR2X1_LOC
XNOR2X1_LOC_624 NOR2X1_LOC_624/a_36_216# INVX1_LOC_256/A VSS VDD NOR2X1_LOC_624/A
+ NOR2X1_LOC_624/B NOR2X1_LOC
XNOR2X1_LOC_410 NOR2X1_LOC_410/a_36_216# NOR2X1_LOC_410/Y VSS VDD INVX1_LOC_37/A INVX1_LOC_11/A
+ NOR2X1_LOC
XNOR2X1_LOC_454 NOR2X1_LOC_454/a_36_216# NOR2X1_LOC_454/Y VSS VDD NOR2X1_LOC_447/Y
+ INVX1_LOC_187/Y NOR2X1_LOC
XNOR2X1_LOC_432 NOR2X1_LOC_432/a_36_216# NOR2X1_LOC_432/Y VSS VDD NOR2X1_LOC_589/A
+ INVX1_LOC_16/A NOR2X1_LOC
XNOR2X1_LOC_421 NOR2X1_LOC_421/a_36_216# NOR2X1_LOC_421/Y VSS VDD NOR2X1_LOC_328/Y
+ NOR2X1_LOC_91/A NOR2X1_LOC
XNOR2X1_LOC_465 NOR2X1_LOC_465/a_36_216# NOR2X1_LOC_465/Y VSS VDD NOR2X1_LOC_456/Y
+ NOR2X1_LOC_455/Y NOR2X1_LOC
XNOR2X1_LOC_476 NOR2X1_LOC_476/a_36_216# NOR2X1_LOC_476/Y VSS VDD INVX1_LOC_201/Y
+ NOR2X1_LOC_476/B NOR2X1_LOC
XNOR2X1_LOC_443 NOR2X1_LOC_443/a_36_216# NOR2X1_LOC_443/Y VSS VDD NOR2X1_LOC_545/B
+ NOR2X1_LOC_97/A NOR2X1_LOC
XNOR2X1_LOC_487 NOR2X1_LOC_487/a_36_216# NOR2X1_LOC_487/Y VSS VDD INVX1_LOC_57/Y NOR2X1_LOC_45/B
+ NOR2X1_LOC
XNOR2X1_LOC_498 NOR2X1_LOC_498/a_36_216# NOR2X1_LOC_498/Y VSS VDD NOR2X1_LOC_189/A
+ INVX1_LOC_54/A NOR2X1_LOC
XNAND2X1_LOC_229 NAND2X1_LOC_229/a_36_24# NOR2X1_LOC_231/B VSS VDD INVX1_LOC_11/A
+ NOR2X1_LOC_160/B NAND2X1_LOC
XNAND2X1_LOC_218 NAND2X1_LOC_218/a_36_24# NAND2X1_LOC_222/A VSS VDD NAND2X1_LOC_218/A
+ NAND2X1_LOC_218/B NAND2X1_LOC
XNAND2X1_LOC_207 NAND2X1_LOC_207/a_36_24# NAND2X1_LOC_207/Y VSS VDD INVX1_LOC_108/Y
+ NAND2X1_LOC_207/B NAND2X1_LOC
XNOR2X1_LOC_251 NOR2X1_LOC_251/a_36_216# NOR2X1_LOC_251/Y VSS VDD NOR2X1_LOC_106/A
+ INVX1_LOC_38/A NOR2X1_LOC
XNOR2X1_LOC_240 NOR2X1_LOC_240/a_36_216# NOR2X1_LOC_240/Y VSS VDD NOR2X1_LOC_240/A
+ NOR2X1_LOC_240/B NOR2X1_LOC
XNOR2X1_LOC_273 NOR2X1_LOC_273/a_36_216# NOR2X1_LOC_273/Y VSS VDD NOR2X1_LOC_433/A
+ INVX1_LOC_24/A NOR2X1_LOC
XNOR2X1_LOC_295 NOR2X1_LOC_295/a_36_216# NOR2X1_LOC_295/Y VSS VDD NOR2X1_LOC_481/A
+ INVX1_LOC_45/Y NOR2X1_LOC
XNOR2X1_LOC_284 NOR2X1_LOC_284/a_36_216# NOR2X1_LOC_287/A VSS VDD NOR2X1_LOC_542/B
+ NOR2X1_LOC_284/B NOR2X1_LOC
XNOR2X1_LOC_262 NOR2X1_LOC_262/a_36_216# NOR2X1_LOC_262/Y VSS VDD NOR2X1_LOC_65/B
+ INVX1_LOC_29/Y NOR2X1_LOC
XNAND2X1_LOC_785 NAND2X1_LOC_785/a_36_24# NAND2X1_LOC_785/Y VSS VDD NAND2X1_LOC_785/A
+ NAND2X1_LOC_785/B NAND2X1_LOC
XNAND2X1_LOC_774 NAND2X1_LOC_774/a_36_24# INVX1_LOC_299/A VSS VDD INVX1_LOC_298/Y
+ NAND2X1_LOC_773/Y NAND2X1_LOC
XNAND2X1_LOC_796 NAND2X1_LOC_796/a_36_24# NAND2X1_LOC_796/Y VSS VDD NAND2X1_LOC_783/Y
+ NAND2X1_LOC_796/B NAND2X1_LOC
XNAND2X1_LOC_730 NAND2X1_LOC_730/a_36_24# NAND2X1_LOC_739/B VSS VDD NAND2X1_LOC_728/Y
+ NAND2X1_LOC_729/Y NAND2X1_LOC
XNAND2X1_LOC_741 NAND2X1_LOC_741/a_36_24# NAND2X1_LOC_741/Y VSS VDD NAND2X1_LOC_736/Y
+ NAND2X1_LOC_741/B NAND2X1_LOC
XNAND2X1_LOC_752 NAND2X1_LOC_752/a_36_24# INVX1_LOC_289/A VSS VDD INPUT_5 NAND2X1_LOC_51/B
+ NAND2X1_LOC
XNAND2X1_LOC_763 NAND2X1_LOC_763/a_36_24# NOR2X1_LOC_769/B VSS VDD NOR2X1_LOC_598/B
+ NAND2X1_LOC_763/B NAND2X1_LOC
XINVX1_LOC_7 INVX1_LOC_7/Y VSS VDD INVX1_LOC_7/A INVX1_LOC
XNAND2X1_LOC_560 NAND2X1_LOC_560/a_36_24# INVX1_LOC_229/A VSS VDD NAND2X1_LOC_560/A
+ NAND2X1_LOC_559/Y NAND2X1_LOC
XNAND2X1_LOC_571 NAND2X1_LOC_571/a_36_24# NAND2X1_LOC_571/Y VSS VDD INVX1_LOC_230/Y
+ NAND2X1_LOC_571/B NAND2X1_LOC
XNAND2X1_LOC_593 NAND2X1_LOC_593/a_36_24# NAND2X1_LOC_593/Y VSS VDD NOR2X1_LOC_591/Y
+ INVX1_LOC_246/Y NAND2X1_LOC
XNAND2X1_LOC_582 NAND2X1_LOC_582/a_36_24# NOR2X1_LOC_635/A VSS VDD INVX1_LOC_77/A
+ NAND2X1_LOC_581/Y NAND2X1_LOC
XNAND2X1_LOC_390 NAND2X1_LOC_390/a_36_24# NAND2X1_LOC_392/A VSS VDD NAND2X1_LOC_390/A
+ INVX1_LOC_162/Y NAND2X1_LOC
XNOR2X1_LOC_828 NOR2X1_LOC_828/a_36_216# NOR2X1_LOC_828/Y VSS VDD NOR2X1_LOC_828/A
+ NOR2X1_LOC_828/B NOR2X1_LOC
XNOR2X1_LOC_806 NOR2X1_LOC_806/a_36_216# NOR2X1_LOC_806/Y VSS VDD INVX1_LOC_269/Y
+ INVX1_LOC_134/A NOR2X1_LOC
XNOR2X1_LOC_817 NOR2X1_LOC_817/a_36_216# NOR2X1_LOC_817/Y VSS VDD NOR2X1_LOC_381/Y
+ INPUT_1 NOR2X1_LOC
XNOR2X1_LOC_839 NOR2X1_LOC_839/a_36_216# NOR2X1_LOC_852/A VSS VDD NOR2X1_LOC_836/Y
+ NOR2X1_LOC_839/B NOR2X1_LOC
XINVX1_LOC_212 INVX1_LOC_212/Y VSS VDD INVX1_LOC_212/A INVX1_LOC
XINVX1_LOC_201 INVX1_LOC_201/Y VSS VDD INVX1_LOC_201/A INVX1_LOC
XINVX1_LOC_267 INVX1_LOC_267/Y VSS VDD INVX1_LOC_267/A INVX1_LOC
XINVX1_LOC_234 INVX1_LOC_234/Y VSS VDD INVX1_LOC_234/A INVX1_LOC
XINVX1_LOC_256 INVX1_LOC_256/Y VSS VDD INVX1_LOC_256/A INVX1_LOC
XINVX1_LOC_278 INVX1_LOC_278/Y VSS VDD INVX1_LOC_278/A INVX1_LOC
XINVX1_LOC_223 INVX1_LOC_223/Y VSS VDD INVX1_LOC_223/A INVX1_LOC
XINVX1_LOC_289 INVX1_LOC_289/Y VSS VDD INVX1_LOC_289/A INVX1_LOC
XINVX1_LOC_245 INVX1_LOC_245/Y VSS VDD INVX1_LOC_245/A INVX1_LOC
XNAND2X1_LOC_89 NAND2X1_LOC_89/a_36_24# NOR2X1_LOC_97/B VSS VDD INVX1_LOC_45/A NOR2X1_LOC_78/A
+ NAND2X1_LOC
XNAND2X1_LOC_45 NAND2X1_LOC_45/a_36_24# NAND2X1_LOC_45/Y VSS VDD NOR2X1_LOC_160/B
+ INVX1_LOC_33/A NAND2X1_LOC
XNAND2X1_LOC_34 NAND2X1_LOC_34/a_36_24# NAND2X1_LOC_35/B VSS VDD NOR2X1_LOC_27/Y NOR2X1_LOC_32/Y
+ NAND2X1_LOC
XNAND2X1_LOC_23 NAND2X1_LOC_23/a_36_24# NOR2X1_LOC_160/B VSS VDD NOR2X1_LOC_19/B INVX1_LOC_13/A
+ NAND2X1_LOC
XNAND2X1_LOC_78 NAND2X1_LOC_78/a_36_24# NOR2X1_LOC_79/A VSS VDD NOR2X1_LOC_15/Y NOR2X1_LOC_89/A
+ NAND2X1_LOC
XNAND2X1_LOC_67 NAND2X1_LOC_67/a_36_24# NAND2X1_LOC_67/Y VSS VDD INVX1_LOC_42/Y NOR2X1_LOC_66/Y
+ NAND2X1_LOC
XNAND2X1_LOC_56 NAND2X1_LOC_56/a_36_24# NOR2X1_LOC_197/A VSS VDD NAND2X1_LOC_53/Y
+ INVX1_LOC_41/A NAND2X1_LOC
XNAND2X1_LOC_12 NAND2X1_LOC_12/a_36_24# INVX1_LOC_11/A VSS VDD NAND2X1_LOC_1/Y NAND2X1_LOC_11/Y
+ NAND2X1_LOC
XNOR2X1_LOC_636 NOR2X1_LOC_636/a_36_216# INVX1_LOC_262/A VSS VDD NOR2X1_LOC_636/A
+ NOR2X1_LOC_636/B NOR2X1_LOC
XNOR2X1_LOC_603 NOR2X1_LOC_603/a_36_216# NOR2X1_LOC_603/Y VSS VDD NOR2X1_LOC_52/B
+ INVX1_LOC_12/A NOR2X1_LOC
XNOR2X1_LOC_658 NOR2X1_LOC_658/a_36_216# NOR2X1_LOC_658/Y VSS VDD NOR2X1_LOC_632/Y
+ INVX1_LOC_256/A NOR2X1_LOC
XNOR2X1_LOC_614 NOR2X1_LOC_614/a_36_216# NOR2X1_LOC_614/Y VSS VDD INVX1_LOC_77/A NOR2X1_LOC_78/A
+ NOR2X1_LOC
XNOR2X1_LOC_669 NOR2X1_LOC_669/a_36_216# NOR2X1_LOC_669/Y VSS VDD NOR2X1_LOC_669/A
+ INVX1_LOC_92/A NOR2X1_LOC
XNOR2X1_LOC_647 NOR2X1_LOC_647/a_36_216# NOR2X1_LOC_647/Y VSS VDD NOR2X1_LOC_647/A
+ NOR2X1_LOC_647/B NOR2X1_LOC
XNOR2X1_LOC_625 NOR2X1_LOC_625/a_36_216# NOR2X1_LOC_625/Y VSS VDD INVX1_LOC_136/A
+ NOR2X1_LOC_67/A NOR2X1_LOC
XNOR2X1_LOC_433 NOR2X1_LOC_433/a_36_216# NOR2X1_LOC_433/Y VSS VDD NOR2X1_LOC_433/A
+ INVX1_LOC_54/A NOR2X1_LOC
XNOR2X1_LOC_422 NOR2X1_LOC_422/a_36_216# NOR2X1_LOC_422/Y VSS VDD NOR2X1_LOC_92/Y
+ INVX1_LOC_12/A NOR2X1_LOC
XNOR2X1_LOC_400 NOR2X1_LOC_400/a_36_216# INVX1_LOC_166/A VSS VDD NOR2X1_LOC_400/A
+ NOR2X1_LOC_400/B NOR2X1_LOC
XNOR2X1_LOC_411 NOR2X1_LOC_411/a_36_216# NOR2X1_LOC_411/Y VSS VDD NOR2X1_LOC_411/A
+ INVX1_LOC_64/A NOR2X1_LOC
XNOR2X1_LOC_466 NOR2X1_LOC_466/a_36_216# NOR2X1_LOC_470/B VSS VDD NOR2X1_LOC_454/Y
+ NOR2X1_LOC_453/Y NOR2X1_LOC
XNOR2X1_LOC_477 NOR2X1_LOC_477/a_36_216# NOR2X1_LOC_478/A VSS VDD NOR2X1_LOC_471/Y
+ NOR2X1_LOC_477/B NOR2X1_LOC
XNOR2X1_LOC_499 NOR2X1_LOC_499/a_36_216# NOR2X1_LOC_500/A VSS VDD NOR2X1_LOC_778/A
+ NOR2X1_LOC_499/B NOR2X1_LOC
XNOR2X1_LOC_455 NOR2X1_LOC_455/a_36_216# NOR2X1_LOC_455/Y VSS VDD NOR2X1_LOC_445/Y
+ INVX1_LOC_55/Y NOR2X1_LOC
XNOR2X1_LOC_488 NOR2X1_LOC_488/a_36_216# NOR2X1_LOC_488/Y VSS VDD NOR2X1_LOC_226/A
+ INVX1_LOC_90/A NOR2X1_LOC
XNOR2X1_LOC_444 NOR2X1_LOC_444/a_36_216# INVX1_LOC_186/A VSS VDD NOR2X1_LOC_443/Y
+ INVX1_LOC_184/Y NOR2X1_LOC
XNAND2X1_LOC_208 NAND2X1_LOC_208/a_36_24# NAND2X1_LOC_214/B VSS VDD NAND2X1_LOC_35/Y
+ NAND2X1_LOC_208/B NAND2X1_LOC
XNAND2X1_LOC_219 NAND2X1_LOC_219/a_36_24# NAND2X1_LOC_222/B VSS VDD NAND2X1_LOC_214/Y
+ NAND2X1_LOC_219/B NAND2X1_LOC
XNOR2X1_LOC_230 NOR2X1_LOC_230/a_36_216# NOR2X1_LOC_230/Y VSS VDD INVX1_LOC_22/A INVX1_LOC_6/A
+ NOR2X1_LOC
XNOR2X1_LOC_274 NOR2X1_LOC_274/a_36_216# NOR2X1_LOC_274/Y VSS VDD NOR2X1_LOC_831/B
+ NOR2X1_LOC_274/B NOR2X1_LOC
XNOR2X1_LOC_263 NOR2X1_LOC_263/a_36_216# INVX1_LOC_124/A VSS VDD INVX1_LOC_25/Y INVX1_LOC_18/A
+ NOR2X1_LOC
XNOR2X1_LOC_252 NOR2X1_LOC_252/a_36_216# NOR2X1_LOC_252/Y VSS VDD INVX1_LOC_46/A INVX1_LOC_42/A
+ NOR2X1_LOC
XNOR2X1_LOC_285 NOR2X1_LOC_285/a_36_216# NOR2X1_LOC_285/Y VSS VDD NOR2X1_LOC_285/A
+ NOR2X1_LOC_285/B NOR2X1_LOC
XNOR2X1_LOC_241 NOR2X1_LOC_241/a_36_216# NOR2X1_LOC_242/A VSS VDD NOR2X1_LOC_241/A
+ NOR2X1_LOC_445/B NOR2X1_LOC
XNOR2X1_LOC_296 NOR2X1_LOC_296/a_36_216# NOR2X1_LOC_296/Y VSS VDD INVX1_LOC_41/A INVX1_LOC_31/A
+ NOR2X1_LOC
XNAND2X1_LOC_720 NAND2X1_LOC_720/a_36_24# NAND2X1_LOC_721/B VSS VDD NOR2X1_LOC_667/Y
+ NOR2X1_LOC_669/Y NAND2X1_LOC
XNAND2X1_LOC_786 NAND2X1_LOC_786/a_36_24# INVX1_LOC_303/A VSS VDD NAND2X1_LOC_84/Y
+ NOR2X1_LOC_262/Y NAND2X1_LOC
XNAND2X1_LOC_775 NAND2X1_LOC_775/a_36_24# NAND2X1_LOC_785/A VSS VDD NOR2X1_LOC_91/Y
+ NOR2X1_LOC_109/Y NAND2X1_LOC
XNAND2X1_LOC_731 NAND2X1_LOC_731/a_36_24# NAND2X1_LOC_731/Y VSS VDD NAND2X1_LOC_726/Y
+ NAND2X1_LOC_727/Y NAND2X1_LOC
XNAND2X1_LOC_753 NAND2X1_LOC_753/a_36_24# NOR2X1_LOC_790/B VSS VDD NOR2X1_LOC_188/A
+ INVX1_LOC_290/Y NAND2X1_LOC
XNAND2X1_LOC_742 NAND2X1_LOC_742/a_36_24# GATE_741 VSS VDD NAND2X1_LOC_740/Y NAND2X1_LOC_741/Y
+ NAND2X1_LOC
XNAND2X1_LOC_797 NAND2X1_LOC_797/a_36_24# NAND2X1_LOC_803/B VSS VDD NAND2X1_LOC_149/Y
+ INVX1_LOC_302/Y NAND2X1_LOC
XNAND2X1_LOC_764 NAND2X1_LOC_764/a_36_24# NOR2X1_LOC_769/A VSS VDD INVX1_LOC_29/A
+ INVX1_LOC_75/A NAND2X1_LOC
XINVX1_LOC_8 INVX1_LOC_8/Y VSS VDD INVX1_LOC_8/A INVX1_LOC
XNAND2X1_LOC_572 NAND2X1_LOC_572/a_36_24# INVX1_LOC_233/A VSS VDD INVX1_LOC_73/A NAND2X1_LOC_572/B
+ NAND2X1_LOC
XNAND2X1_LOC_550 NAND2X1_LOC_550/a_36_24# NAND2X1_LOC_565/B VSS VDD NAND2X1_LOC_550/A
+ INVX1_LOC_226/Y NAND2X1_LOC
XNAND2X1_LOC_561 NAND2X1_LOC_561/a_36_24# NAND2X1_LOC_571/B VSS VDD NAND2X1_LOC_557/Y
+ NAND2X1_LOC_561/B NAND2X1_LOC
XNAND2X1_LOC_594 NAND2X1_LOC_594/a_36_24# NOR2X1_LOC_653/B VSS VDD INVX1_LOC_57/A
+ NOR2X1_LOC_186/Y NAND2X1_LOC
XNAND2X1_LOC_583 NAND2X1_LOC_583/a_36_24# NOR2X1_LOC_636/B VSS VDD INVX1_LOC_21/A
+ NOR2X1_LOC_68/A NAND2X1_LOC
XNAND2X1_LOC_391 NAND2X1_LOC_391/a_36_24# NAND2X1_LOC_391/Y VSS VDD NOR2X1_LOC_382/Y
+ NOR2X1_LOC_384/Y NAND2X1_LOC
XNAND2X1_LOC_380 NAND2X1_LOC_380/a_36_24# NOR2X1_LOC_460/B VSS VDD INVX1_LOC_76/Y
+ NOR2X1_LOC_379/Y NAND2X1_LOC
XNOR2X1_LOC_807 NOR2X1_LOC_807/a_36_216# NOR2X1_LOC_811/B VSS VDD NOR2X1_LOC_806/Y
+ NOR2X1_LOC_807/B NOR2X1_LOC
XNOR2X1_LOC_829 NOR2X1_LOC_829/a_36_216# NOR2X1_LOC_829/Y VSS VDD NOR2X1_LOC_829/A
+ INVX1_LOC_50/A NOR2X1_LOC
XNOR2X1_LOC_818 NOR2X1_LOC_818/a_36_216# NOR2X1_LOC_818/Y VSS VDD INVX1_LOC_83/A INVX1_LOC_4/Y
+ NOR2X1_LOC
XINVX1_LOC_235 INVX1_LOC_235/Y VSS VDD INVX1_LOC_235/A INVX1_LOC
XINVX1_LOC_224 INVX1_LOC_224/Y VSS VDD INVX1_LOC_224/A INVX1_LOC
XINVX1_LOC_279 INVX1_LOC_279/Y VSS VDD INVX1_LOC_279/A INVX1_LOC
XINVX1_LOC_246 INVX1_LOC_246/Y VSS VDD INVX1_LOC_246/A INVX1_LOC
XINVX1_LOC_202 INVX1_LOC_202/Y VSS VDD INVX1_LOC_202/A INVX1_LOC
XINVX1_LOC_213 INVX1_LOC_213/Y VSS VDD INVX1_LOC_213/A INVX1_LOC
XINVX1_LOC_257 INVX1_LOC_257/Y VSS VDD INVX1_LOC_257/A INVX1_LOC
XINVX1_LOC_268 INVX1_LOC_268/Y VSS VDD INVX1_LOC_268/A INVX1_LOC
XNOR2X1_LOC_604 NOR2X1_LOC_604/a_36_216# NOR2X1_LOC_604/Y VSS VDD INVX1_LOC_92/A INVX1_LOC_54/A
+ NOR2X1_LOC
XNOR2X1_LOC_626 NOR2X1_LOC_626/a_36_216# NOR2X1_LOC_626/Y VSS VDD INVX1_LOC_92/A INVX1_LOC_58/A
+ NOR2X1_LOC
XNAND2X1_LOC_13 NAND2X1_LOC_13/a_36_24# NOR2X1_LOC_538/B VSS VDD INVX1_LOC_9/A INVX1_LOC_11/A
+ NAND2X1_LOC
XNAND2X1_LOC_57 NAND2X1_LOC_57/a_36_24# INVX1_LOC_43/A VSS VDD INVX1_LOC_4/Y INVX1_LOC_33/A
+ NAND2X1_LOC
XNAND2X1_LOC_79 NAND2X1_LOC_79/a_36_24# NAND2X1_LOC_79/Y VSS VDD INVX1_LOC_16/Y NOR2X1_LOC_78/Y
+ NAND2X1_LOC
XNAND2X1_LOC_35 NAND2X1_LOC_35/a_36_24# NAND2X1_LOC_35/Y VSS VDD NAND2X1_LOC_33/Y
+ NAND2X1_LOC_35/B NAND2X1_LOC
XNAND2X1_LOC_24 NAND2X1_LOC_24/a_36_24# NOR2X1_LOC_33/A VSS VDD INVX1_LOC_17/A NOR2X1_LOC_160/B
+ NAND2X1_LOC
XNAND2X1_LOC_46 NAND2X1_LOC_46/a_36_24# NOR2X1_LOC_598/B VSS VDD D_INPUT_1 INVX1_LOC_13/A
+ NAND2X1_LOC
XNAND2X1_LOC_68 NAND2X1_LOC_68/a_36_24# NOR2X1_LOC_69/A VSS VDD INVX1_LOC_4/A NOR2X1_LOC_52/B
+ NAND2X1_LOC
XNOR2X1_LOC_615 NOR2X1_LOC_615/a_36_216# NOR2X1_LOC_615/Y VSS VDD NOR2X1_LOC_754/A
+ INVX1_LOC_17/Y NOR2X1_LOC
XNOR2X1_LOC_659 NOR2X1_LOC_659/a_36_216# INVX1_LOC_268/A VSS VDD NOR2X1_LOC_658/Y
+ NOR2X1_LOC_657/Y NOR2X1_LOC
XNOR2X1_LOC_637 NOR2X1_LOC_637/a_36_216# NOR2X1_LOC_637/Y VSS VDD NOR2X1_LOC_637/A
+ NOR2X1_LOC_637/B NOR2X1_LOC
XNOR2X1_LOC_648 NOR2X1_LOC_648/a_36_216# NOR2X1_LOC_655/B VSS VDD INVX1_LOC_263/Y
+ NOR2X1_LOC_644/Y NOR2X1_LOC
XNOR2X1_LOC_467 NOR2X1_LOC_467/a_36_216# NOR2X1_LOC_470/A VSS VDD NOR2X1_LOC_467/A
+ NOR2X1_LOC_210/A NOR2X1_LOC
XNOR2X1_LOC_423 NOR2X1_LOC_423/a_36_216# NOR2X1_LOC_423/Y VSS VDD INVX1_LOC_50/A INVX1_LOC_6/A
+ NOR2X1_LOC
XNOR2X1_LOC_456 NOR2X1_LOC_456/a_36_216# NOR2X1_LOC_456/Y VSS VDD NOR2X1_LOC_254/Y
+ INVX1_LOC_99/A NOR2X1_LOC
XNOR2X1_LOC_445 NOR2X1_LOC_445/a_36_216# NOR2X1_LOC_445/Y VSS VDD NOR2X1_LOC_318/B
+ NOR2X1_LOC_445/B NOR2X1_LOC
XNOR2X1_LOC_434 NOR2X1_LOC_434/a_36_216# NOR2X1_LOC_434/Y VSS VDD NOR2X1_LOC_434/A
+ NOR2X1_LOC_174/A NOR2X1_LOC
XNOR2X1_LOC_412 NOR2X1_LOC_412/a_36_216# NOR2X1_LOC_690/A VSS VDD INVX1_LOC_34/A INVX1_LOC_25/Y
+ NOR2X1_LOC
XNOR2X1_LOC_401 NOR2X1_LOC_401/a_36_216# NOR2X1_LOC_401/Y VSS VDD NOR2X1_LOC_401/A
+ NOR2X1_LOC_401/B NOR2X1_LOC
XNOR2X1_LOC_478 NOR2X1_LOC_478/a_36_216# INVX1_LOC_204/A VSS VDD NOR2X1_LOC_478/A
+ INVX1_LOC_199/Y NOR2X1_LOC
XNOR2X1_LOC_489 NOR2X1_LOC_489/a_36_216# NOR2X1_LOC_772/B VSS VDD NOR2X1_LOC_489/A
+ NOR2X1_LOC_489/B NOR2X1_LOC
XNAND2X1_LOC_209 NAND2X1_LOC_209/a_36_24# NAND2X1_LOC_213/A VSS VDD NAND2X1_LOC_149/Y
+ NOR2X1_LOC_152/Y NAND2X1_LOC
XNOR2X1_LOC_275 NOR2X1_LOC_275/a_36_216# INVX1_LOC_130/A VSS VDD NOR2X1_LOC_275/A
+ INPUT_0 NOR2X1_LOC
XNOR2X1_LOC_220 NOR2X1_LOC_220/a_36_216# INVX1_LOC_116/A VSS VDD NOR2X1_LOC_220/A
+ NOR2X1_LOC_220/B NOR2X1_LOC
XNOR2X1_LOC_297 NOR2X1_LOC_297/a_36_216# INVX1_LOC_138/A VSS VDD NOR2X1_LOC_297/A
+ INVX1_LOC_34/A NOR2X1_LOC
XNOR2X1_LOC_242 NOR2X1_LOC_242/a_36_216# NOR2X1_LOC_244/B VSS VDD NOR2X1_LOC_242/A
+ INVX1_LOC_120/Y NOR2X1_LOC
XNOR2X1_LOC_253 NOR2X1_LOC_253/a_36_216# NOR2X1_LOC_253/Y VSS VDD INVX1_LOC_78/A INVX1_LOC_50/A
+ NOR2X1_LOC
XNOR2X1_LOC_286 NOR2X1_LOC_286/a_36_216# NOR2X1_LOC_286/Y VSS VDD NOR2X1_LOC_285/Y
+ INVX1_LOC_132/Y NOR2X1_LOC
XNOR2X1_LOC_264 NOR2X1_LOC_264/a_36_216# NOR2X1_LOC_264/Y VSS VDD NOR2X1_LOC_78/A
+ INVX1_LOC_9/A NOR2X1_LOC
XNOR2X1_LOC_231 NOR2X1_LOC_231/a_36_216# NOR2X1_LOC_641/B VSS VDD NOR2X1_LOC_231/A
+ NOR2X1_LOC_231/B NOR2X1_LOC
XNAND2X1_LOC_710 NAND2X1_LOC_710/a_36_24# NAND2X1_LOC_711/B VSS VDD NOR2X1_LOC_700/Y
+ NOR2X1_LOC_701/Y NAND2X1_LOC
XNAND2X1_LOC_721 NAND2X1_LOC_721/a_36_24# NAND2X1_LOC_734/B VSS VDD NAND2X1_LOC_721/A
+ NAND2X1_LOC_721/B NAND2X1_LOC
XNAND2X1_LOC_754 NAND2X1_LOC_754/a_36_24# NOR2X1_LOC_790/A VSS VDD INVX1_LOC_24/Y
+ NOR2X1_LOC_614/Y NAND2X1_LOC
XNAND2X1_LOC_732 NAND2X1_LOC_732/a_36_24# NAND2X1_LOC_738/B VSS VDD NAND2X1_LOC_724/Y
+ NAND2X1_LOC_725/Y NAND2X1_LOC
XNAND2X1_LOC_743 NAND2X1_LOC_743/a_36_24# NOR2X1_LOC_780/B VSS VDD INVX1_LOC_1/A NOR2X1_LOC_155/A
+ NAND2X1_LOC
XNAND2X1_LOC_787 NAND2X1_LOC_787/a_36_24# NAND2X1_LOC_787/Y VSS VDD NAND2X1_LOC_787/A
+ NAND2X1_LOC_787/B NAND2X1_LOC
XNAND2X1_LOC_776 NAND2X1_LOC_776/a_36_24# NAND2X1_LOC_785/B VSS VDD NOR2X1_LOC_164/Y
+ NOR2X1_LOC_238/Y NAND2X1_LOC
XNAND2X1_LOC_798 NAND2X1_LOC_798/a_36_24# NAND2X1_LOC_802/A VSS VDD NAND2X1_LOC_798/A
+ NAND2X1_LOC_798/B NAND2X1_LOC
XNAND2X1_LOC_765 NAND2X1_LOC_765/a_36_24# NOR2X1_LOC_770/B VSS VDD INVX1_LOC_11/A
+ NOR2X1_LOC_78/B NAND2X1_LOC
XINVX1_LOC_9 INVX1_LOC_9/Y VSS VDD INVX1_LOC_9/A INVX1_LOC
XNAND2X1_LOC_551 NAND2X1_LOC_551/a_36_24# NAND2X1_LOC_564/A VSS VDD NAND2X1_LOC_551/A
+ INVX1_LOC_224/Y NAND2X1_LOC
XNAND2X1_LOC_540 NAND2X1_LOC_540/a_36_24# NAND2X1_LOC_553/A VSS VDD NOR2X1_LOC_178/Y
+ INVX1_LOC_98/A NAND2X1_LOC
XNAND2X1_LOC_595 NAND2X1_LOC_595/a_36_24# NOR2X1_LOC_643/A VSS VDD INVX1_LOC_20/Y
+ NOR2X1_LOC_249/Y NAND2X1_LOC
XNAND2X1_LOC_562 NAND2X1_LOC_562/a_36_24# NAND2X1_LOC_562/Y VSS VDD NAND2X1_LOC_555/Y
+ NAND2X1_LOC_562/B NAND2X1_LOC
XNAND2X1_LOC_573 NAND2X1_LOC_573/a_36_24# NAND2X1_LOC_573/Y VSS VDD NAND2X1_LOC_573/A
+ INVX1_LOC_208/Y NAND2X1_LOC
XNAND2X1_LOC_584 NAND2X1_LOC_584/a_36_24# NOR2X1_LOC_636/A VSS VDD INVX1_LOC_5/A INVX1_LOC_37/A
+ NAND2X1_LOC
XNOR2X1_LOC_808 NOR2X1_LOC_808/a_36_216# NOR2X1_LOC_811/A VSS VDD NOR2X1_LOC_808/A
+ NOR2X1_LOC_808/B NOR2X1_LOC
XNAND2X1_LOC_370 NAND2X1_LOC_370/a_36_24# NAND2X1_LOC_787/A VSS VDD NOR2X1_LOC_309/Y
+ NOR2X1_LOC_369/Y NAND2X1_LOC
XNAND2X1_LOC_392 NAND2X1_LOC_392/a_36_24# NAND2X1_LOC_392/Y VSS VDD NAND2X1_LOC_392/A
+ NAND2X1_LOC_391/Y NAND2X1_LOC
XNAND2X1_LOC_381 NAND2X1_LOC_381/a_36_24# NAND2X1_LOC_381/Y VSS VDD INPUT_3 INVX1_LOC_11/A
+ NAND2X1_LOC
XNOR2X1_LOC_819 NOR2X1_LOC_819/a_36_216# NOR2X1_LOC_820/A VSS VDD INVX1_LOC_40/Y INVX1_LOC_36/A
+ NOR2X1_LOC
XINVX1_LOC_203 INVX1_LOC_203/Y VSS VDD INVX1_LOC_203/A INVX1_LOC
XINVX1_LOC_225 INVX1_LOC_225/Y VSS VDD INVX1_LOC_225/A INVX1_LOC
XINVX1_LOC_214 INVX1_LOC_214/Y VSS VDD INVX1_LOC_214/A INVX1_LOC
XNAND2X1_LOC_14 NAND2X1_LOC_14/a_36_24# INVX1_LOC_13/A VSS VDD D_INPUT_2 D_INPUT_3
+ NAND2X1_LOC
XNAND2X1_LOC_25 NAND2X1_LOC_25/a_36_24# NAND2X1_LOC_59/B VSS VDD INPUT_6 D_INPUT_7
+ NAND2X1_LOC
XINVX1_LOC_258 INVX1_LOC_258/Y VSS VDD INVX1_LOC_258/A INVX1_LOC
XINVX1_LOC_269 INVX1_LOC_269/Y VSS VDD INVX1_LOC_269/A INVX1_LOC
XINVX1_LOC_236 INVX1_LOC_236/Y VSS VDD INVX1_LOC_236/A INVX1_LOC
XINVX1_LOC_247 INVX1_LOC_247/Y VSS VDD INVX1_LOC_247/A INVX1_LOC
XNOR2X1_LOC_638 NOR2X1_LOC_638/a_36_216# NOR2X1_LOC_638/Y VSS VDD NOR2X1_LOC_637/Y
+ INVX1_LOC_244/Y NOR2X1_LOC
XNOR2X1_LOC_627 NOR2X1_LOC_627/a_36_216# NOR2X1_LOC_627/Y VSS VDD INVX1_LOC_24/A INVX1_LOC_6/A
+ NOR2X1_LOC
XNOR2X1_LOC_605 NOR2X1_LOC_605/a_36_216# INVX1_LOC_250/A VSS VDD NOR2X1_LOC_605/A
+ NOR2X1_LOC_605/B NOR2X1_LOC
XNAND2X1_LOC_69 NAND2X1_LOC_69/a_36_24# INVX1_LOC_51/A VSS VDD INVX1_LOC_24/Y NOR2X1_LOC_68/Y
+ NAND2X1_LOC
XNAND2X1_LOC_58 NAND2X1_LOC_58/a_36_24# NOR2X1_LOC_61/B VSS VDD INVX1_LOC_17/A NOR2X1_LOC_68/A
+ NAND2X1_LOC
XNAND2X1_LOC_47 NAND2X1_LOC_47/a_36_24# INVX1_LOC_35/A VSS VDD NAND2X1_LOC_59/B NAND2X1_LOC_30/Y
+ NAND2X1_LOC
XNAND2X1_LOC_36 NAND2X1_LOC_36/a_36_24# INVX1_LOC_23/A VSS VDD NAND2X1_LOC_36/A NAND2X1_LOC_21/Y
+ NAND2X1_LOC
XNOR2X1_LOC_649 NOR2X1_LOC_649/a_36_216# NOR2X1_LOC_649/Y VSS VDD NOR2X1_LOC_643/Y
+ NOR2X1_LOC_649/B NOR2X1_LOC
XNOR2X1_LOC_616 NOR2X1_LOC_616/a_36_216# NOR2X1_LOC_616/Y VSS VDD INVX1_LOC_64/A INVX1_LOC_15/Y
+ NOR2X1_LOC
XNOR2X1_LOC_424 NOR2X1_LOC_424/a_36_216# NOR2X1_LOC_424/Y VSS VDD NOR2X1_LOC_89/A
+ INVX1_LOC_34/A NOR2X1_LOC
XNOR2X1_LOC_435 NOR2X1_LOC_435/a_36_216# INVX1_LOC_180/A VSS VDD NOR2X1_LOC_435/A
+ NOR2X1_LOC_435/B NOR2X1_LOC
XNOR2X1_LOC_457 NOR2X1_LOC_457/a_36_216# NOR2X1_LOC_464/B VSS VDD NOR2X1_LOC_457/A
+ NOR2X1_LOC_457/B NOR2X1_LOC