* SPICE3 file created from dualRail.ext - technology: scmos
*
* drain/source ordering enforced by hand
*

.subckt AND2X1_LOC a_36_24# Y a_8_24# VSS VDD A B
X0 Y a_8_24# VDD VDD PMOS_MAGIC ad=1p pd=5u as=2.2p ps=10.2u w=2u l=0.2u
X1 a_8_24# A a_36_24# VSS NMOS_MAGIC ad=0.6p pd=4.6u as=1p ps=5u w=2u l=0.2u
X2 Y a_8_24# VSS VSS NMOS_MAGIC ad=0.5p pd=3u as=1.1p ps=5.2u w=1u l=0.2u
X3 a_36_24# B VSS VSS NMOS_MAGIC ad=0p pd=0u as=0p ps=0u w=2u l=0.2u
X4 a_8_24# B VDD VDD PMOS_MAGIC ad=0p pd=0u as=1.2p ps=5.2u w=2u l=0.2u
X5 a_8_24# A VDD VDD PMOS_MAGIC ad=0p pd=0u as=0p ps=0u w=2u l=0.2u

C0 B a_8_24# 0.33fF
C1 a_8_24# Y 0.46fF
C2 a_8_24# a_36_24# 0.00fF
C3 VDD A 0.20fF
C4 VDD B 0.25fF
C5 A B 0.26fF
C6 VDD a_8_24# 0.82fF
C7 VDD Y 0.38fF
C8 A a_8_24# 0.06fF
C9 Y VSS 0.13fF
C10 a_8_24# VSS 0.48fF
C11 B VSS 0.19fF
C12 A VSS 0.25fF
C13 VDD VSS 2.08fF
.ends

.subckt OR2X1_LOC a_8_216# a_36_216# Y VSS VDD A B
X0 a_36_216# B VDD VDD PMOS_MAGIC ad=2.2p pd=9.2u as=1.2p ps=8.6u w=4u l=0.2u
X1 Y a_8_216# VDD VDD PMOS_MAGIC ad=1p pd=5u as=0p ps=0u w=2u l=0.2u
X2 a_8_216# B VSS VSS NMOS_MAGIC ad=1.1p pd=6.2u as=0.6p ps=3.2u w=1u l=0.2u
X3 a_8_216# A VSS VSS NMOS_MAGIC ad=0p pd=0u as=0p ps=0u w=1u l=0.2u
X4 a_8_216# A a_36_216# VDD PMOS_MAGIC ad=0p pd=0u as=2p ps=9u w=4u l=0.2u
X5 Y a_8_216# VSS VSS NMOS_MAGIC ad=0.5p pd=3u as=0p ps=0u w=1u l=0.2u

C0 VDD Y 0.41fF
C1 B a_8_216# 0.30fF
C2 a_8_216# Y 0.37fF
C3 VDD A 0.07fF
C4 VDD B 0.07fF
C5 A B 0.22fF
C6 VDD a_8_216# 0.45fF
C7 A a_8_216# 0.06fF
C8 Y VSS 0.29fF
C9 a_8_216# VSS 0.68fF
C10 B VSS 0.31fF
C11 A VSS 0.37fF
C12 VDD VSS 2.08fF
.ends

.subckt AES_SBOX INPUT_0 INPUT_1 INPUT_2 INPUT_3 INPUT_4 INPUT_5 INPUT_6 INPUT_7 
+ D_INPUT_0 D_INPUT_1 D_INPUT_2 D_INPUT_3 D_INPUT_4 D_INPUT_5 D_INPUT_6 D_INPUT_7 
+ GATE_222 GATE_366 GATE_479 GATE_579 GATE_662 GATE_741 GATE_811 GATE_865 
+ D_GATE_222 D_GATE_366 D_GATE_479 D_GATE_579 D_GATE_662 D_GATE_741 D_GATE_811 D_GATE_865 
+ VDD VSS 

XAND2X1_LOC_229 AND2X1_LOC_229/a_36_24# OR2X1_LOC_231/B AND2X1_LOC_229/a_8_24# VSS VDD
+ AND2X1_LOC_12/Y OR2X1_LOC_160/B AND2X1_LOC
XAND2X1_LOC_218 AND2X1_LOC_218/a_36_24# AND2X1_LOC_218/Y AND2X1_LOC_218/a_8_24# VSS VDD
+ AND2X1_LOC_216/Y AND2X1_LOC_217/Y AND2X1_LOC
XAND2X1_LOC_207 AND2X1_LOC_207/a_36_24# AND2X1_LOC_214/A AND2X1_LOC_207/a_8_24# VSS VDD
+ AND2X1_LOC_207/A AND2X1_LOC_207/B AND2X1_LOC
XAND2X1_LOC_741 AND2X1_LOC_741/a_36_24# AND2X1_LOC_741/Y AND2X1_LOC_741/a_8_24# VSS VDD
+ AND2X1_LOC_736/Y AND2X1_LOC_737/Y AND2X1_LOC
XAND2X1_LOC_730 AND2X1_LOC_730/a_36_24# AND2X1_LOC_739/B AND2X1_LOC_730/a_8_24# VSS VDD
+ AND2X1_LOC_728/Y AND2X1_LOC_729/Y AND2X1_LOC
XOR2X1_LOC_549 OR2X1_LOC_549/a_8_216# OR2X1_LOC_549/a_36_216# OR2X1_LOC_549/Y VSS VDD
+ OR2X1_LOC_549/A OR2X1_LOC_549/B OR2X1_LOC
XOR2X1_LOC_505 OR2X1_LOC_505/a_8_216# OR2X1_LOC_505/a_36_216# OR2X1_LOC_505/Y VSS VDD
+ OR2X1_LOC_45/B OR2X1_LOC_18/Y OR2X1_LOC
XOR2X1_LOC_527 OR2X1_LOC_527/a_8_216# OR2X1_LOC_527/a_36_216# OR2X1_LOC_527/Y VSS VDD
+ OR2X1_LOC_323/A OR2X1_LOC_64/Y OR2X1_LOC
XOR2X1_LOC_538 OR2X1_LOC_538/a_8_216# OR2X1_LOC_538/a_36_216# OR2X1_LOC_539/A VSS VDD
+ OR2X1_LOC_538/A OR2X1_LOC_193/A OR2X1_LOC
XOR2X1_LOC_516 OR2X1_LOC_516/a_8_216# OR2X1_LOC_516/a_36_216# OR2X1_LOC_516/Y VSS VDD
+ OR2X1_LOC_516/A OR2X1_LOC_516/B OR2X1_LOC
XAND2X1_LOC_785 AND2X1_LOC_785/a_36_24# AND2X1_LOC_785/Y AND2X1_LOC_785/a_8_24# VSS VDD
+ AND2X1_LOC_785/A AND2X1_LOC_776/Y AND2X1_LOC
XAND2X1_LOC_774 AND2X1_LOC_774/a_36_24# AND2X1_LOC_810/A AND2X1_LOC_774/a_8_24# VSS VDD
+ AND2X1_LOC_774/A AND2X1_LOC_773/Y AND2X1_LOC
XAND2X1_LOC_796 AND2X1_LOC_796/a_36_24# AND2X1_LOC_796/Y AND2X1_LOC_796/a_8_24# VSS VDD
+ AND2X1_LOC_796/A AND2X1_LOC_784/Y AND2X1_LOC
XAND2X1_LOC_763 AND2X1_LOC_763/a_36_24# OR2X1_LOC_769/B AND2X1_LOC_763/a_8_24# VSS VDD
+ AND2X1_LOC_48/A AND2X1_LOC_763/B AND2X1_LOC
XAND2X1_LOC_752 AND2X1_LOC_752/a_36_24# AND2X1_LOC_753/B AND2X1_LOC_752/a_8_24# VSS VDD
+ INPUT_5 AND2X1_LOC_50/Y AND2X1_LOC
XOR2X1_LOC_313 OR2X1_LOC_313/a_8_216# OR2X1_LOC_313/a_36_216# OR2X1_LOC_313/Y VSS VDD
+ OR2X1_LOC_91/A OR2X1_LOC_70/Y OR2X1_LOC
XAND2X1_LOC_560 AND2X1_LOC_560/a_36_24# AND2X1_LOC_571/A AND2X1_LOC_560/a_8_24# VSS VDD
+ AND2X1_LOC_523/Y AND2X1_LOC_560/B AND2X1_LOC
XAND2X1_LOC_571 AND2X1_LOC_571/a_36_24# AND2X1_LOC_571/Y AND2X1_LOC_571/a_8_24# VSS VDD
+ AND2X1_LOC_571/A AND2X1_LOC_571/B AND2X1_LOC
XAND2X1_LOC_593 AND2X1_LOC_593/a_36_24# AND2X1_LOC_593/Y AND2X1_LOC_593/a_8_24# VSS VDD
+ OR2X1_LOC_591/Y AND2X1_LOC_592/Y AND2X1_LOC
XAND2X1_LOC_582 AND2X1_LOC_582/a_36_24# OR2X1_LOC_635/A AND2X1_LOC_582/a_8_24# VSS VDD
+ OR2X1_LOC_161/B AND2X1_LOC_582/B AND2X1_LOC
XOR2X1_LOC_346 OR2X1_LOC_346/a_8_216# OR2X1_LOC_346/a_36_216# OR2X1_LOC_347/A VSS VDD
+ OR2X1_LOC_346/A OR2X1_LOC_346/B OR2X1_LOC
XOR2X1_LOC_335 OR2X1_LOC_335/a_8_216# OR2X1_LOC_335/a_36_216# OR2X1_LOC_335/Y VSS VDD
+ OR2X1_LOC_335/A OR2X1_LOC_335/B OR2X1_LOC
XOR2X1_LOC_357 OR2X1_LOC_357/a_8_216# OR2X1_LOC_357/a_36_216# OR2X1_LOC_364/B VSS VDD
+ OR2X1_LOC_357/A OR2X1_LOC_357/B OR2X1_LOC
XOR2X1_LOC_368 OR2X1_LOC_368/a_8_216# OR2X1_LOC_368/a_36_216# OR2X1_LOC_368/Y VSS VDD
+ OR2X1_LOC_368/A OR2X1_LOC_7/A OR2X1_LOC
XOR2X1_LOC_302 OR2X1_LOC_302/a_8_216# OR2X1_LOC_302/a_36_216# OR2X1_LOC_303/A VSS VDD
+ OR2X1_LOC_302/A OR2X1_LOC_302/B OR2X1_LOC
XOR2X1_LOC_324 OR2X1_LOC_324/a_8_216# OR2X1_LOC_324/a_36_216# OR2X1_LOC_326/B VSS VDD
+ OR2X1_LOC_324/A OR2X1_LOC_324/B OR2X1_LOC
XOR2X1_LOC_379 OR2X1_LOC_379/a_8_216# OR2X1_LOC_379/a_36_216# OR2X1_LOC_379/Y VSS VDD
+ OR2X1_LOC_66/A AND2X1_LOC_12/Y OR2X1_LOC
XOR2X1_LOC_110 OR2X1_LOC_110/a_8_216# OR2X1_LOC_110/a_36_216# OR2X1_LOC_323/A VSS VDD
+ OR2X1_LOC_46/A INPUT_0 OR2X1_LOC
XOR2X1_LOC_154 OR2X1_LOC_154/a_8_216# OR2X1_LOC_154/a_36_216# OR2X1_LOC_156/B VSS VDD
+ OR2X1_LOC_154/A AND2X1_LOC_7/B OR2X1_LOC
XAND2X1_LOC_390 AND2X1_LOC_390/a_36_24# AND2X1_LOC_392/A AND2X1_LOC_390/a_8_24# VSS VDD
+ AND2X1_LOC_388/Y AND2X1_LOC_390/B AND2X1_LOC
XOR2X1_LOC_187 OR2X1_LOC_187/a_8_216# OR2X1_LOC_187/a_36_216# OR2X1_LOC_187/Y VSS VDD
+ OR2X1_LOC_680/A OR2X1_LOC_40/Y OR2X1_LOC
XOR2X1_LOC_143 OR2X1_LOC_143/a_8_216# OR2X1_LOC_143/a_36_216# OR2X1_LOC_696/A VSS VDD
+ OR2X1_LOC_8/Y INPUT_1 OR2X1_LOC
XOR2X1_LOC_121 OR2X1_LOC_121/a_8_216# OR2X1_LOC_121/a_36_216# OR2X1_LOC_121/Y VSS VDD
+ OR2X1_LOC_121/A OR2X1_LOC_121/B OR2X1_LOC
XOR2X1_LOC_132 OR2X1_LOC_132/a_8_216# OR2X1_LOC_132/a_36_216# OR2X1_LOC_132/Y VSS VDD
+ OR2X1_LOC_95/Y OR2X1_LOC_91/A OR2X1_LOC
XOR2X1_LOC_165 OR2X1_LOC_165/a_8_216# OR2X1_LOC_165/a_36_216# OR2X1_LOC_165/Y VSS VDD
+ OR2X1_LOC_74/A OR2X1_LOC_51/Y OR2X1_LOC
XOR2X1_LOC_198 OR2X1_LOC_198/a_8_216# OR2X1_LOC_198/a_36_216# OR2X1_LOC_208/A VSS VDD
+ OR2X1_LOC_198/A AND2X1_LOC_57/Y OR2X1_LOC
XOR2X1_LOC_176 OR2X1_LOC_176/a_8_216# OR2X1_LOC_176/a_36_216# OR2X1_LOC_176/Y VSS VDD
+ OR2X1_LOC_91/A OR2X1_LOC_26/Y OR2X1_LOC
XOR2X1_LOC_709 OR2X1_LOC_709/a_8_216# OR2X1_LOC_709/a_36_216# OR2X1_LOC_711/B VSS VDD
+ OR2X1_LOC_709/A OR2X1_LOC_709/B OR2X1_LOC
XAND2X1_LOC_219 AND2X1_LOC_219/a_36_24# AND2X1_LOC_219/Y AND2X1_LOC_219/a_8_24# VSS VDD
+ AND2X1_LOC_219/A AND2X1_LOC_215/Y AND2X1_LOC
XAND2X1_LOC_208 AND2X1_LOC_208/a_36_24# AND2X1_LOC_208/Y AND2X1_LOC_208/a_8_24# VSS VDD
+ AND2X1_LOC_35/Y AND2X1_LOC_208/B AND2X1_LOC
XAND2X1_LOC_720 AND2X1_LOC_720/a_36_24# AND2X1_LOC_720/Y AND2X1_LOC_720/a_8_24# VSS VDD
+ OR2X1_LOC_667/Y OR2X1_LOC_669/Y AND2X1_LOC
XAND2X1_LOC_775 AND2X1_LOC_775/a_36_24# AND2X1_LOC_785/A AND2X1_LOC_775/a_8_24# VSS VDD
+ OR2X1_LOC_91/Y OR2X1_LOC_109/Y AND2X1_LOC
XAND2X1_LOC_731 AND2X1_LOC_731/a_36_24# AND2X1_LOC_731/Y AND2X1_LOC_731/a_8_24# VSS VDD
+ AND2X1_LOC_726/Y AND2X1_LOC_727/Y AND2X1_LOC
XAND2X1_LOC_742 AND2X1_LOC_742/a_36_24# GATE_741 AND2X1_LOC_742/a_8_24# VSS VDD
+ AND2X1_LOC_742/A AND2X1_LOC_741/Y AND2X1_LOC
XAND2X1_LOC_764 AND2X1_LOC_764/a_36_24# OR2X1_LOC_769/A AND2X1_LOC_764/a_8_24# VSS VDD
+ AND2X1_LOC_40/Y OR2X1_LOC_160/A AND2X1_LOC
XAND2X1_LOC_753 AND2X1_LOC_753/a_36_24# OR2X1_LOC_790/B AND2X1_LOC_753/a_8_24# VSS VDD
+ OR2X1_LOC_185/Y AND2X1_LOC_753/B AND2X1_LOC
XOR2X1_LOC_506 OR2X1_LOC_506/a_8_216# OR2X1_LOC_506/a_36_216# OR2X1_LOC_506/Y VSS VDD
+ OR2X1_LOC_506/A OR2X1_LOC_506/B OR2X1_LOC
XOR2X1_LOC_528 OR2X1_LOC_528/a_8_216# OR2X1_LOC_528/a_36_216# OR2X1_LOC_528/Y VSS VDD
+ OR2X1_LOC_44/Y OR2X1_LOC_7/A OR2X1_LOC
XOR2X1_LOC_517 OR2X1_LOC_517/a_8_216# OR2X1_LOC_517/a_36_216# OR2X1_LOC_517/Y VSS VDD
+ OR2X1_LOC_517/A OR2X1_LOC_31/Y OR2X1_LOC
XOR2X1_LOC_539 OR2X1_LOC_539/a_8_216# OR2X1_LOC_539/a_36_216# OR2X1_LOC_539/Y VSS VDD
+ OR2X1_LOC_539/A OR2X1_LOC_539/B OR2X1_LOC
XAND2X1_LOC_786 AND2X1_LOC_786/a_36_24# AND2X1_LOC_786/Y AND2X1_LOC_786/a_8_24# VSS VDD
+ AND2X1_LOC_84/Y OR2X1_LOC_262/Y AND2X1_LOC
XAND2X1_LOC_797 AND2X1_LOC_797/a_36_24# AND2X1_LOC_803/B AND2X1_LOC_797/a_8_24# VSS VDD
+ AND2X1_LOC_797/A AND2X1_LOC_797/B AND2X1_LOC
XOR2X1_LOC_314 OR2X1_LOC_314/a_8_216# OR2X1_LOC_314/a_36_216# OR2X1_LOC_314/Y VSS VDD
+ OR2X1_LOC_64/Y OR2X1_LOC_16/A OR2X1_LOC
XAND2X1_LOC_561 AND2X1_LOC_561/a_36_24# AND2X1_LOC_571/B AND2X1_LOC_561/a_8_24# VSS VDD
+ AND2X1_LOC_557/Y AND2X1_LOC_561/B AND2X1_LOC
XAND2X1_LOC_572 AND2X1_LOC_572/a_36_24# AND2X1_LOC_572/Y AND2X1_LOC_572/a_8_24# VSS VDD
+ AND2X1_LOC_572/A AND2X1_LOC_361/A AND2X1_LOC
XAND2X1_LOC_594 AND2X1_LOC_594/a_36_24# OR2X1_LOC_653/B AND2X1_LOC_594/a_8_24# VSS VDD
+ AND2X1_LOC_95/Y OR2X1_LOC_186/Y AND2X1_LOC
XAND2X1_LOC_550 AND2X1_LOC_550/a_36_24# AND2X1_LOC_565/B AND2X1_LOC_550/a_8_24# VSS VDD
+ AND2X1_LOC_550/A AND2X1_LOC_547/Y AND2X1_LOC
XAND2X1_LOC_583 AND2X1_LOC_583/a_36_24# OR2X1_LOC_636/B AND2X1_LOC_583/a_8_24# VSS VDD
+ AND2X1_LOC_31/Y OR2X1_LOC_87/A AND2X1_LOC
XOR2X1_LOC_347 OR2X1_LOC_347/a_8_216# OR2X1_LOC_347/a_36_216# OR2X1_LOC_347/Y VSS VDD
+ OR2X1_LOC_347/A OR2X1_LOC_347/B OR2X1_LOC
XOR2X1_LOC_358 OR2X1_LOC_358/a_8_216# OR2X1_LOC_358/a_36_216# OR2X1_LOC_364/A VSS VDD
+ OR2X1_LOC_358/A OR2X1_LOC_358/B OR2X1_LOC
XOR2X1_LOC_303 OR2X1_LOC_303/a_8_216# OR2X1_LOC_303/a_36_216# OR2X1_LOC_566/A VSS VDD
+ OR2X1_LOC_303/A OR2X1_LOC_303/B OR2X1_LOC
XOR2X1_LOC_336 OR2X1_LOC_336/a_8_216# OR2X1_LOC_336/a_36_216# OR2X1_LOC_337/A VSS VDD
+ OR2X1_LOC_703/A OR2X1_LOC_538/A OR2X1_LOC
XOR2X1_LOC_369 OR2X1_LOC_369/a_8_216# OR2X1_LOC_369/a_36_216# OR2X1_LOC_369/Y VSS VDD
+ OR2X1_LOC_426/B OR2X1_LOC_22/Y OR2X1_LOC
XOR2X1_LOC_325 OR2X1_LOC_325/a_8_216# OR2X1_LOC_325/a_36_216# OR2X1_LOC_325/Y VSS VDD
+ OR2X1_LOC_325/A OR2X1_LOC_325/B OR2X1_LOC
XOR2X1_LOC_144 OR2X1_LOC_144/a_8_216# OR2X1_LOC_144/a_36_216# OR2X1_LOC_144/Y VSS VDD
+ OR2X1_LOC_696/A OR2X1_LOC_59/Y OR2X1_LOC
XOR2X1_LOC_133 OR2X1_LOC_133/a_8_216# OR2X1_LOC_133/a_36_216# OR2X1_LOC_427/A VSS VDD
+ OR2X1_LOC_49/A OR2X1_LOC_8/Y OR2X1_LOC
XOR2X1_LOC_122 OR2X1_LOC_122/a_8_216# OR2X1_LOC_122/a_36_216# OR2X1_LOC_122/Y VSS VDD
+ OR2X1_LOC_122/A OR2X1_LOC_44/Y OR2X1_LOC
XOR2X1_LOC_100 OR2X1_LOC_100/a_8_216# OR2X1_LOC_100/a_36_216# OR2X1_LOC_100/Y VSS VDD
+ AND2X1_LOC_88/Y AND2X1_LOC_86/Y OR2X1_LOC
XOR2X1_LOC_111 OR2X1_LOC_111/a_8_216# OR2X1_LOC_111/a_36_216# OR2X1_LOC_111/Y VSS VDD
+ OR2X1_LOC_323/A OR2X1_LOC_31/Y OR2X1_LOC
XOR2X1_LOC_199 OR2X1_LOC_199/a_8_216# OR2X1_LOC_199/a_36_216# OR2X1_LOC_207/B VSS VDD
+ OR2X1_LOC_196/Y OR2X1_LOC_199/B OR2X1_LOC
XOR2X1_LOC_155 OR2X1_LOC_155/a_8_216# OR2X1_LOC_155/a_36_216# OR2X1_LOC_156/A VSS VDD
+ OR2X1_LOC_155/A OR2X1_LOC_87/A OR2X1_LOC
XOR2X1_LOC_166 OR2X1_LOC_166/a_8_216# OR2X1_LOC_166/a_36_216# OR2X1_LOC_166/Y VSS VDD
+ OR2X1_LOC_40/Y OR2X1_LOC_16/A OR2X1_LOC
XAND2X1_LOC_391 AND2X1_LOC_391/a_36_24# AND2X1_LOC_391/Y AND2X1_LOC_391/a_8_24# VSS VDD
+ OR2X1_LOC_382/Y OR2X1_LOC_384/Y AND2X1_LOC
XAND2X1_LOC_380 AND2X1_LOC_380/a_36_24# OR2X1_LOC_460/B AND2X1_LOC_380/a_8_24# VSS VDD
+ OR2X1_LOC_160/A OR2X1_LOC_379/Y AND2X1_LOC
XOR2X1_LOC_188 OR2X1_LOC_188/a_8_216# OR2X1_LOC_188/a_36_216# OR2X1_LOC_188/Y VSS VDD
+ OR2X1_LOC_185/Y OR2X1_LOC_154/A OR2X1_LOC
XOR2X1_LOC_177 OR2X1_LOC_177/a_8_216# OR2X1_LOC_177/a_36_216# OR2X1_LOC_177/Y VSS VDD
+ OR2X1_LOC_70/Y OR2X1_LOC_52/B OR2X1_LOC
XAND2X1_LOC_209 AND2X1_LOC_209/a_36_24# AND2X1_LOC_209/Y AND2X1_LOC_209/a_8_24# VSS VDD
+ AND2X1_LOC_797/A OR2X1_LOC_152/Y AND2X1_LOC
XAND2X1_LOC_721 AND2X1_LOC_721/a_36_24# AND2X1_LOC_721/Y AND2X1_LOC_721/a_8_24# VSS VDD
+ AND2X1_LOC_721/A AND2X1_LOC_720/Y AND2X1_LOC
XAND2X1_LOC_710 AND2X1_LOC_710/a_36_24# AND2X1_LOC_710/Y AND2X1_LOC_710/a_8_24# VSS VDD
+ OR2X1_LOC_700/Y OR2X1_LOC_701/Y AND2X1_LOC
XAND2X1_LOC_765 AND2X1_LOC_765/a_36_24# OR2X1_LOC_770/B AND2X1_LOC_765/a_8_24# VSS VDD
+ AND2X1_LOC_12/Y OR2X1_LOC_78/B AND2X1_LOC
XAND2X1_LOC_776 AND2X1_LOC_776/a_36_24# AND2X1_LOC_776/Y AND2X1_LOC_776/a_8_24# VSS VDD
+ OR2X1_LOC_164/Y OR2X1_LOC_238/Y AND2X1_LOC
XAND2X1_LOC_787 AND2X1_LOC_787/a_36_24# AND2X1_LOC_794/A AND2X1_LOC_787/a_8_24# VSS VDD
+ AND2X1_LOC_787/A AND2X1_LOC_486/Y AND2X1_LOC
XAND2X1_LOC_798 AND2X1_LOC_798/a_36_24# AND2X1_LOC_798/Y AND2X1_LOC_798/a_8_24# VSS VDD
+ AND2X1_LOC_798/A AND2X1_LOC_436/Y AND2X1_LOC
XAND2X1_LOC_743 AND2X1_LOC_743/a_36_24# OR2X1_LOC_780/B AND2X1_LOC_743/a_8_24# VSS VDD
+ AND2X1_LOC_3/Y OR2X1_LOC_155/A AND2X1_LOC
XAND2X1_LOC_754 AND2X1_LOC_754/a_36_24# OR2X1_LOC_790/A AND2X1_LOC_754/a_8_24# VSS VDD
+ AND2X1_LOC_36/Y OR2X1_LOC_614/Y AND2X1_LOC
XAND2X1_LOC_732 AND2X1_LOC_732/a_36_24# AND2X1_LOC_738/B AND2X1_LOC_732/a_8_24# VSS VDD
+ AND2X1_LOC_724/Y AND2X1_LOC_732/B AND2X1_LOC
XOR2X1_LOC_507 OR2X1_LOC_507/a_8_216# OR2X1_LOC_507/a_36_216# OR2X1_LOC_508/A VSS VDD
+ OR2X1_LOC_507/A OR2X1_LOC_507/B OR2X1_LOC
XOR2X1_LOC_529 OR2X1_LOC_529/a_8_216# OR2X1_LOC_529/a_36_216# OR2X1_LOC_529/Y VSS VDD
+ OR2X1_LOC_26/Y D_INPUT_3 OR2X1_LOC
XOR2X1_LOC_518 OR2X1_LOC_518/a_8_216# OR2X1_LOC_518/a_36_216# OR2X1_LOC_518/Y VSS VDD
+ OR2X1_LOC_74/A OR2X1_LOC_64/Y OR2X1_LOC
XOR2X1_LOC_304 OR2X1_LOC_304/a_8_216# OR2X1_LOC_304/a_36_216# OR2X1_LOC_304/Y VSS VDD
+ OR2X1_LOC_428/A OR2X1_LOC_53/Y OR2X1_LOC
XOR2X1_LOC_315 OR2X1_LOC_315/a_8_216# OR2X1_LOC_315/a_36_216# OR2X1_LOC_315/Y VSS VDD
+ OR2X1_LOC_427/A OR2X1_LOC_31/Y OR2X1_LOC
XOR2X1_LOC_326 OR2X1_LOC_326/a_8_216# OR2X1_LOC_326/a_36_216# OR2X1_LOC_354/A VSS VDD
+ OR2X1_LOC_325/Y OR2X1_LOC_326/B OR2X1_LOC
XAND2X1_LOC_573 AND2X1_LOC_573/a_36_24# AND2X1_LOC_573/Y AND2X1_LOC_573/a_8_24# VSS VDD
+ AND2X1_LOC_573/A AND2X1_LOC_501/Y AND2X1_LOC
XAND2X1_LOC_562 AND2X1_LOC_562/a_36_24# AND2X1_LOC_562/Y AND2X1_LOC_562/a_8_24# VSS VDD
+ AND2X1_LOC_555/Y AND2X1_LOC_562/B AND2X1_LOC
XAND2X1_LOC_595 AND2X1_LOC_595/a_36_24# OR2X1_LOC_643/A AND2X1_LOC_595/a_8_24# VSS VDD
+ OR2X1_LOC_66/A OR2X1_LOC_249/Y AND2X1_LOC
XAND2X1_LOC_540 AND2X1_LOC_540/a_36_24# AND2X1_LOC_553/A AND2X1_LOC_540/a_8_24# VSS VDD
+ OR2X1_LOC_178/Y OR2X1_LOC_183/Y AND2X1_LOC
XAND2X1_LOC_584 AND2X1_LOC_584/a_36_24# OR2X1_LOC_636/A AND2X1_LOC_584/a_8_24# VSS VDD
+ AND2X1_LOC_7/B AND2X1_LOC_51/Y AND2X1_LOC
XAND2X1_LOC_551 AND2X1_LOC_551/a_36_24# AND2X1_LOC_564/A AND2X1_LOC_551/a_8_24# VSS VDD
+ AND2X1_LOC_544/Y AND2X1_LOC_551/B AND2X1_LOC
XOR2X1_LOC_348 OR2X1_LOC_348/a_8_216# OR2X1_LOC_348/a_36_216# OR2X1_LOC_348/Y VSS VDD
+ OR2X1_LOC_345/Y OR2X1_LOC_348/B OR2X1_LOC
XOR2X1_LOC_359 OR2X1_LOC_359/a_8_216# OR2X1_LOC_359/a_36_216# OR2X1_LOC_363/B VSS VDD
+ OR2X1_LOC_359/A OR2X1_LOC_348/Y OR2X1_LOC
XOR2X1_LOC_337 OR2X1_LOC_337/a_8_216# OR2X1_LOC_337/a_36_216# OR2X1_LOC_352/A VSS VDD
+ OR2X1_LOC_337/A OR2X1_LOC_335/Y OR2X1_LOC
XOR2X1_LOC_860 OR2X1_LOC_860/a_8_216# OR2X1_LOC_860/a_36_216# OR2X1_LOC_860/Y VSS VDD
+ OR2X1_LOC_474/B OR2X1_LOC_244/Y OR2X1_LOC
XOR2X1_LOC_145 OR2X1_LOC_145/a_8_216# OR2X1_LOC_145/a_36_216# OR2X1_LOC_145/Y VSS VDD
+ OR2X1_LOC_89/A OR2X1_LOC_51/Y OR2X1_LOC
XOR2X1_LOC_156 OR2X1_LOC_156/a_8_216# OR2X1_LOC_156/a_36_216# OR2X1_LOC_156/Y VSS VDD
+ OR2X1_LOC_156/A OR2X1_LOC_156/B OR2X1_LOC
XOR2X1_LOC_167 OR2X1_LOC_167/a_8_216# OR2X1_LOC_167/a_36_216# OR2X1_LOC_167/Y VSS VDD
+ OR2X1_LOC_604/A OR2X1_LOC_64/Y OR2X1_LOC
XOR2X1_LOC_123 OR2X1_LOC_123/a_8_216# OR2X1_LOC_123/a_36_216# OR2X1_LOC_124/A VSS VDD
+ OR2X1_LOC_633/B OR2X1_LOC_123/B OR2X1_LOC
XOR2X1_LOC_101 OR2X1_LOC_101/a_8_216# OR2X1_LOC_101/a_36_216# OR2X1_LOC_656/B VSS VDD
+ OR2X1_LOC_100/Y OR2X1_LOC_99/Y OR2X1_LOC
XOR2X1_LOC_134 OR2X1_LOC_134/a_8_216# OR2X1_LOC_134/a_36_216# OR2X1_LOC_134/Y VSS VDD
+ OR2X1_LOC_427/A OR2X1_LOC_95/Y OR2X1_LOC
XOR2X1_LOC_112 OR2X1_LOC_112/a_8_216# OR2X1_LOC_112/a_36_216# OR2X1_LOC_715/B VSS VDD
+ OR2X1_LOC_112/A OR2X1_LOC_112/B OR2X1_LOC
XAND2X1_LOC_392 AND2X1_LOC_392/a_36_24# AND2X1_LOC_474/A AND2X1_LOC_392/a_8_24# VSS VDD
+ AND2X1_LOC_392/A AND2X1_LOC_391/Y AND2X1_LOC
XAND2X1_LOC_381 AND2X1_LOC_381/a_36_24# AND2X1_LOC_817/B AND2X1_LOC_381/a_8_24# VSS VDD
+ INPUT_3 AND2X1_LOC_12/Y AND2X1_LOC
XAND2X1_LOC_370 AND2X1_LOC_370/a_36_24# AND2X1_LOC_787/A AND2X1_LOC_370/a_8_24# VSS VDD
+ OR2X1_LOC_309/Y OR2X1_LOC_369/Y AND2X1_LOC
XOR2X1_LOC_178 OR2X1_LOC_178/a_8_216# OR2X1_LOC_178/a_36_216# OR2X1_LOC_178/Y VSS VDD
+ OR2X1_LOC_158/A OR2X1_LOC_56/A OR2X1_LOC
XOR2X1_LOC_189 OR2X1_LOC_189/a_8_216# OR2X1_LOC_189/a_36_216# OR2X1_LOC_189/Y VSS VDD
+ OR2X1_LOC_189/A OR2X1_LOC_95/Y OR2X1_LOC
XOR2X1_LOC_690 OR2X1_LOC_690/a_8_216# OR2X1_LOC_690/a_36_216# OR2X1_LOC_690/Y VSS VDD
+ OR2X1_LOC_690/A INPUT_0 OR2X1_LOC
XOR2X1_LOC_508 OR2X1_LOC_508/a_8_216# OR2X1_LOC_508/a_36_216# OR2X1_LOC_508/Y VSS VDD
+ OR2X1_LOC_508/A OR2X1_LOC_506/Y OR2X1_LOC
XAND2X1_LOC_711 AND2X1_LOC_711/a_36_24# AND2X1_LOC_711/Y AND2X1_LOC_711/a_8_24# VSS VDD
+ AND2X1_LOC_711/A AND2X1_LOC_710/Y AND2X1_LOC
XAND2X1_LOC_755 AND2X1_LOC_755/a_36_24# OR2X1_LOC_791/B AND2X1_LOC_755/a_8_24# VSS VDD
+ AND2X1_LOC_59/Y OR2X1_LOC_664/Y AND2X1_LOC
XAND2X1_LOC_766 AND2X1_LOC_766/a_36_24# OR2X1_LOC_770/A AND2X1_LOC_766/a_8_24# VSS VDD
+ AND2X1_LOC_64/Y AND2X1_LOC_91/B AND2X1_LOC
XAND2X1_LOC_722 AND2X1_LOC_722/a_36_24# AND2X1_LOC_722/Y AND2X1_LOC_722/a_8_24# VSS VDD
+ AND2X1_LOC_722/A AND2X1_LOC_719/Y AND2X1_LOC
XAND2X1_LOC_733 AND2X1_LOC_733/a_36_24# AND2X1_LOC_733/Y AND2X1_LOC_733/a_8_24# VSS VDD
+ AND2X1_LOC_722/Y AND2X1_LOC_723/Y AND2X1_LOC
XAND2X1_LOC_777 AND2X1_LOC_777/a_36_24# AND2X1_LOC_784/A AND2X1_LOC_777/a_8_24# VSS VDD
+ OR2X1_LOC_246/A OR2X1_LOC_305/Y AND2X1_LOC
XAND2X1_LOC_799 AND2X1_LOC_799/a_36_24# AND2X1_LOC_802/B AND2X1_LOC_799/a_8_24# VSS VDD
+ AND2X1_LOC_539/Y AND2X1_LOC_593/Y AND2X1_LOC
XAND2X1_LOC_788 AND2X1_LOC_788/a_36_24# AND2X1_LOC_794/B AND2X1_LOC_788/a_8_24# VSS VDD
+ OR2X1_LOC_533/Y AND2X1_LOC_645/A AND2X1_LOC
XAND2X1_LOC_700 AND2X1_LOC_700/a_36_24# OR2X1_LOC_710/B AND2X1_LOC_700/a_8_24# VSS VDD
+ AND2X1_LOC_59/Y AND2X1_LOC_91/B AND2X1_LOC
XAND2X1_LOC_744 AND2X1_LOC_744/a_36_24# OR2X1_LOC_780/A AND2X1_LOC_744/a_8_24# VSS VDD
+ AND2X1_LOC_44/Y OR2X1_LOC_160/A AND2X1_LOC
XOR2X1_LOC_519 OR2X1_LOC_519/a_8_216# OR2X1_LOC_519/a_36_216# OR2X1_LOC_519/Y VSS VDD
+ OR2X1_LOC_158/A OR2X1_LOC_48/B OR2X1_LOC
XOR2X1_LOC_305 OR2X1_LOC_305/a_8_216# OR2X1_LOC_305/a_36_216# OR2X1_LOC_305/Y VSS VDD
+ OR2X1_LOC_91/A OR2X1_LOC_3/Y OR2X1_LOC
XAND2X1_LOC_541 AND2X1_LOC_541/a_36_24# AND2X1_LOC_541/Y AND2X1_LOC_541/a_8_24# VSS VDD
+ OR2X1_LOC_256/A OR2X1_LOC_272/Y AND2X1_LOC
XAND2X1_LOC_530 AND2X1_LOC_530/a_36_24# OR2X1_LOC_548/A AND2X1_LOC_530/a_8_24# VSS VDD
+ AND2X1_LOC_36/Y OR2X1_LOC_532/B AND2X1_LOC
XOR2X1_LOC_349 OR2X1_LOC_349/a_8_216# OR2X1_LOC_349/a_36_216# OR2X1_LOC_359/A VSS VDD
+ OR2X1_LOC_349/A OR2X1_LOC_349/B OR2X1_LOC
XOR2X1_LOC_327 OR2X1_LOC_327/a_8_216# OR2X1_LOC_327/a_36_216# OR2X1_LOC_405/A VSS VDD
+ OR2X1_LOC_264/Y AND2X1_LOC_65/A OR2X1_LOC
XOR2X1_LOC_316 OR2X1_LOC_316/a_8_216# OR2X1_LOC_316/a_36_216# OR2X1_LOC_316/Y VSS VDD
+ OR2X1_LOC_80/Y OR2X1_LOC_12/Y OR2X1_LOC
XOR2X1_LOC_338 OR2X1_LOC_338/a_8_216# OR2X1_LOC_338/a_36_216# OR2X1_LOC_351/B VSS VDD
+ OR2X1_LOC_338/A OR2X1_LOC_338/B OR2X1_LOC
XAND2X1_LOC_574 AND2X1_LOC_574/a_36_24# AND2X1_LOC_574/Y AND2X1_LOC_574/a_8_24# VSS VDD
+ AND2X1_LOC_574/A OR2X1_LOC_516/Y AND2X1_LOC
XAND2X1_LOC_563 AND2X1_LOC_563/a_36_24# AND2X1_LOC_563/Y AND2X1_LOC_563/a_8_24# VSS VDD
+ AND2X1_LOC_563/A AND2X1_LOC_554/Y AND2X1_LOC
XAND2X1_LOC_552 AND2X1_LOC_552/a_36_24# AND2X1_LOC_564/B AND2X1_LOC_552/a_8_24# VSS VDD
+ AND2X1_LOC_552/A AND2X1_LOC_543/Y AND2X1_LOC
XAND2X1_LOC_585 AND2X1_LOC_585/a_36_24# OR2X1_LOC_637/B AND2X1_LOC_585/a_8_24# VSS VDD
+ AND2X1_LOC_22/Y OR2X1_LOC_598/A AND2X1_LOC
XAND2X1_LOC_596 AND2X1_LOC_596/a_36_24# OR2X1_LOC_597/A AND2X1_LOC_596/a_8_24# VSS VDD
+ OR2X1_LOC_44/Y OR2X1_LOC_421/A AND2X1_LOC
XOR2X1_LOC_850 OR2X1_LOC_850/a_8_216# OR2X1_LOC_850/a_36_216# OR2X1_LOC_858/B VSS VDD
+ OR2X1_LOC_850/A OR2X1_LOC_850/B OR2X1_LOC
XOR2X1_LOC_861 OR2X1_LOC_861/a_8_216# OR2X1_LOC_861/a_36_216# OR2X1_LOC_865/B VSS VDD
+ OR2X1_LOC_860/Y OR2X1_LOC_624/Y OR2X1_LOC
XOR2X1_LOC_157 OR2X1_LOC_157/a_8_216# OR2X1_LOC_157/a_36_216# OR2X1_LOC_158/A VSS VDD
+ OR2X1_LOC_17/Y OR2X1_LOC_2/Y OR2X1_LOC
XOR2X1_LOC_146 OR2X1_LOC_146/a_8_216# OR2X1_LOC_146/a_36_216# OR2X1_LOC_146/Y VSS VDD
+ OR2X1_LOC_744/A OR2X1_LOC_36/Y OR2X1_LOC
XOR2X1_LOC_135 OR2X1_LOC_135/a_8_216# OR2X1_LOC_135/a_36_216# OR2X1_LOC_135/Y VSS VDD
+ OR2X1_LOC_427/A OR2X1_LOC_59/Y OR2X1_LOC
XAND2X1_LOC_371 AND2X1_LOC_371/a_36_24# OR2X1_LOC_778/B AND2X1_LOC_371/a_8_24# VSS VDD
+ OR2X1_LOC_68/B AND2X1_LOC_31/Y AND2X1_LOC
XAND2X1_LOC_360 AND2X1_LOC_360/a_36_24# AND2X1_LOC_363/B AND2X1_LOC_360/a_8_24# VSS VDD
+ AND2X1_LOC_860/A AND2X1_LOC_347/Y AND2X1_LOC
XAND2X1_LOC_382 AND2X1_LOC_382/a_36_24# OR2X1_LOC_391/B AND2X1_LOC_382/a_8_24# VSS VDD
+ OR2X1_LOC_80/A AND2X1_LOC_817/B AND2X1_LOC
XOR2X1_LOC_113 OR2X1_LOC_113/a_8_216# OR2X1_LOC_113/a_36_216# OR2X1_LOC_113/Y VSS VDD
+ OR2X1_LOC_113/A OR2X1_LOC_113/B OR2X1_LOC
XOR2X1_LOC_102 OR2X1_LOC_102/a_8_216# OR2X1_LOC_102/a_36_216# OR2X1_LOC_485/A VSS VDD
+ OR2X1_LOC_54/Y OR2X1_LOC_8/Y OR2X1_LOC
XOR2X1_LOC_124 OR2X1_LOC_124/a_8_216# OR2X1_LOC_124/a_36_216# OR2X1_LOC_124/Y VSS VDD
+ OR2X1_LOC_124/A OR2X1_LOC_124/B OR2X1_LOC
XOR2X1_LOC_179 OR2X1_LOC_179/a_8_216# OR2X1_LOC_179/a_36_216# OR2X1_LOC_179/Y VSS VDD
+ OR2X1_LOC_600/A OR2X1_LOC_36/Y OR2X1_LOC
XOR2X1_LOC_168 OR2X1_LOC_168/a_8_216# OR2X1_LOC_168/a_36_216# OR2X1_LOC_168/Y VSS VDD
+ OR2X1_LOC_168/A OR2X1_LOC_168/B OR2X1_LOC
XAND2X1_LOC_393 AND2X1_LOC_393/a_36_24# OR2X1_LOC_400/B AND2X1_LOC_393/a_8_24# VSS VDD
+ OR2X1_LOC_154/A AND2X1_LOC_40/Y AND2X1_LOC
XOR2X1_LOC_680 OR2X1_LOC_680/a_8_216# OR2X1_LOC_680/a_36_216# OR2X1_LOC_680/Y VSS VDD
+ OR2X1_LOC_680/A OR2X1_LOC_51/Y OR2X1_LOC
XOR2X1_LOC_691 OR2X1_LOC_691/a_8_216# OR2X1_LOC_691/a_36_216# OR2X1_LOC_691/Y VSS VDD
+ OR2X1_LOC_691/A OR2X1_LOC_691/B OR2X1_LOC
XAND2X1_LOC_190 AND2X1_LOC_190/a_36_24# AND2X1_LOC_191/B AND2X1_LOC_190/a_8_24# VSS VDD
+ OR2X1_LOC_183/Y OR2X1_LOC_184/Y AND2X1_LOC
XAND2X1_LOC_723 AND2X1_LOC_723/a_36_24# AND2X1_LOC_723/Y AND2X1_LOC_723/a_8_24# VSS VDD
+ AND2X1_LOC_716/Y AND2X1_LOC_717/Y AND2X1_LOC
XAND2X1_LOC_701 AND2X1_LOC_701/a_36_24# OR2X1_LOC_710/A AND2X1_LOC_701/a_8_24# VSS VDD
+ AND2X1_LOC_44/Y OR2X1_LOC_269/B AND2X1_LOC
XAND2X1_LOC_712 AND2X1_LOC_712/a_36_24# AND2X1_LOC_712/Y AND2X1_LOC_712/a_8_24# VSS VDD
+ AND2X1_LOC_707/Y AND2X1_LOC_712/B AND2X1_LOC
XOR2X1_LOC_509 OR2X1_LOC_509/a_8_216# OR2X1_LOC_509/a_36_216# OR2X1_LOC_510/A VSS VDD
+ OR2X1_LOC_509/A OR2X1_LOC_227/Y OR2X1_LOC
XAND2X1_LOC_756 AND2X1_LOC_756/a_36_24# OR2X1_LOC_757/A AND2X1_LOC_756/a_8_24# VSS VDD
+ OR2X1_LOC_600/A OR2X1_LOC_604/A AND2X1_LOC
XAND2X1_LOC_789 AND2X1_LOC_789/a_36_24# AND2X1_LOC_789/Y AND2X1_LOC_789/a_8_24# VSS VDD
+ OR2X1_LOC_748/Y OR2X1_LOC_751/Y AND2X1_LOC
XAND2X1_LOC_767 AND2X1_LOC_767/a_36_24# OR2X1_LOC_773/B AND2X1_LOC_767/a_8_24# VSS VDD
+ AND2X1_LOC_3/Y OR2X1_LOC_78/Y AND2X1_LOC
XAND2X1_LOC_778 AND2X1_LOC_778/a_36_24# AND2X1_LOC_778/Y AND2X1_LOC_778/a_8_24# VSS VDD
+ OR2X1_LOC_371/Y OR2X1_LOC_496/Y AND2X1_LOC
XAND2X1_LOC_734 AND2X1_LOC_734/a_36_24# AND2X1_LOC_734/Y AND2X1_LOC_734/a_8_24# VSS VDD
+ OR2X1_LOC_406/Y AND2X1_LOC_721/Y AND2X1_LOC
XAND2X1_LOC_745 AND2X1_LOC_745/a_36_24# OR2X1_LOC_781/B AND2X1_LOC_745/a_8_24# VSS VDD
+ AND2X1_LOC_40/Y OR2X1_LOC_161/A AND2X1_LOC
XOR2X1_LOC_328 OR2X1_LOC_328/a_8_216# OR2X1_LOC_328/a_36_216# OR2X1_LOC_421/A VSS VDD
+ OR2X1_LOC_70/A INPUT_4 OR2X1_LOC
XOR2X1_LOC_306 OR2X1_LOC_306/a_8_216# OR2X1_LOC_306/a_36_216# OR2X1_LOC_306/Y VSS VDD
+ OR2X1_LOC_696/A OR2X1_LOC_22/Y OR2X1_LOC
XAND2X1_LOC_575 AND2X1_LOC_575/a_36_24# AND2X1_LOC_575/Y AND2X1_LOC_575/a_8_24# VSS VDD
+ AND2X1_LOC_573/Y AND2X1_LOC_574/Y AND2X1_LOC
XAND2X1_LOC_553 AND2X1_LOC_553/a_36_24# AND2X1_LOC_563/A AND2X1_LOC_553/a_8_24# VSS VDD
+ AND2X1_LOC_553/A AND2X1_LOC_541/Y AND2X1_LOC
XAND2X1_LOC_531 AND2X1_LOC_531/a_36_24# OR2X1_LOC_549/B AND2X1_LOC_531/a_8_24# VSS VDD
+ AND2X1_LOC_40/Y OR2X1_LOC_185/A AND2X1_LOC
XAND2X1_LOC_564 AND2X1_LOC_564/a_36_24# AND2X1_LOC_569/A AND2X1_LOC_564/a_8_24# VSS VDD
+ AND2X1_LOC_564/A AND2X1_LOC_564/B AND2X1_LOC
XAND2X1_LOC_520 AND2X1_LOC_520/a_36_24# AND2X1_LOC_520/Y AND2X1_LOC_520/a_8_24# VSS VDD
+ OR2X1_LOC_518/Y OR2X1_LOC_519/Y AND2X1_LOC
XAND2X1_LOC_542 AND2X1_LOC_542/a_36_24# AND2X1_LOC_552/A AND2X1_LOC_542/a_8_24# VSS VDD
+ OR2X1_LOC_280/Y OR2X1_LOC_312/Y AND2X1_LOC
XOR2X1_LOC_339 OR2X1_LOC_339/a_8_216# OR2X1_LOC_339/a_36_216# OR2X1_LOC_339/Y VSS VDD
+ OR2X1_LOC_339/A OR2X1_LOC_61/Y OR2X1_LOC
XOR2X1_LOC_317 OR2X1_LOC_317/a_8_216# OR2X1_LOC_317/a_36_216# OR2X1_LOC_319/B VSS VDD
+ OR2X1_LOC_317/A OR2X1_LOC_317/B OR2X1_LOC
XAND2X1_LOC_586 AND2X1_LOC_586/a_36_24# OR2X1_LOC_637/A AND2X1_LOC_586/a_8_24# VSS VDD
+ AND2X1_LOC_70/Y OR2X1_LOC_130/A AND2X1_LOC
XAND2X1_LOC_597 AND2X1_LOC_597/a_36_24# OR2X1_LOC_644/B AND2X1_LOC_597/a_8_24# VSS VDD
+ AND2X1_LOC_41/A OR2X1_LOC_596/Y AND2X1_LOC
XOR2X1_LOC_862 OR2X1_LOC_862/a_8_216# OR2X1_LOC_862/a_36_216# OR2X1_LOC_865/A VSS VDD
+ OR2X1_LOC_862/A OR2X1_LOC_862/B OR2X1_LOC
XOR2X1_LOC_840 OR2X1_LOC_840/a_8_216# OR2X1_LOC_840/a_36_216# OR2X1_LOC_851/B VSS VDD
+ OR2X1_LOC_840/A OR2X1_LOC_833/Y OR2X1_LOC
XOR2X1_LOC_851 OR2X1_LOC_851/a_8_216# OR2X1_LOC_851/a_36_216# OR2X1_LOC_858/A VSS VDD
+ OR2X1_LOC_851/A OR2X1_LOC_851/B OR2X1_LOC
XOR2X1_LOC_158 OR2X1_LOC_158/a_8_216# OR2X1_LOC_158/a_36_216# OR2X1_LOC_158/Y VSS VDD
+ OR2X1_LOC_158/A OR2X1_LOC_158/B OR2X1_LOC
XOR2X1_LOC_147 OR2X1_LOC_147/a_8_216# OR2X1_LOC_147/a_36_216# OR2X1_LOC_149/B VSS VDD
+ OR2X1_LOC_147/A OR2X1_LOC_147/B OR2X1_LOC
XAND2X1_LOC_361 AND2X1_LOC_361/a_36_24# AND2X1_LOC_362/B AND2X1_LOC_361/a_8_24# VSS VDD
+ AND2X1_LOC_361/A AND2X1_LOC_276/Y AND2X1_LOC
XAND2X1_LOC_372 AND2X1_LOC_372/a_36_24# OR2X1_LOC_458/B AND2X1_LOC_372/a_8_24# VSS VDD
+ D_INPUT_1 OR2X1_LOC_778/B AND2X1_LOC
XAND2X1_LOC_394 AND2X1_LOC_394/a_36_24# OR2X1_LOC_400/A AND2X1_LOC_394/a_8_24# VSS VDD
+ AND2X1_LOC_47/Y OR2X1_LOC_160/A AND2X1_LOC
XAND2X1_LOC_383 AND2X1_LOC_383/a_36_24# OR2X1_LOC_494/A AND2X1_LOC_383/a_8_24# VSS VDD
+ OR2X1_LOC_91/A OR2X1_LOC_428/A AND2X1_LOC
XAND2X1_LOC_350 AND2X1_LOC_350/a_36_24# AND2X1_LOC_350/Y AND2X1_LOC_350/a_8_24# VSS VDD
+ AND2X1_LOC_340/Y AND2X1_LOC_350/B AND2X1_LOC
XOR2X1_LOC_125 OR2X1_LOC_125/a_8_216# OR2X1_LOC_125/a_36_216# OR2X1_LOC_125/Y VSS VDD
+ OR2X1_LOC_600/A OR2X1_LOC_95/Y OR2X1_LOC
XOR2X1_LOC_114 OR2X1_LOC_114/a_8_216# OR2X1_LOC_114/a_36_216# OR2X1_LOC_114/Y VSS VDD
+ OR2X1_LOC_113/Y OR2X1_LOC_114/B OR2X1_LOC
XOR2X1_LOC_103 OR2X1_LOC_103/a_8_216# OR2X1_LOC_103/a_36_216# OR2X1_LOC_103/Y VSS VDD
+ OR2X1_LOC_485/A OR2X1_LOC_47/Y OR2X1_LOC
XOR2X1_LOC_169 OR2X1_LOC_169/a_8_216# OR2X1_LOC_169/a_36_216# OR2X1_LOC_170/A VSS VDD
+ OR2X1_LOC_703/B OR2X1_LOC_169/B OR2X1_LOC
XOR2X1_LOC_136 OR2X1_LOC_136/a_8_216# OR2X1_LOC_136/a_36_216# OR2X1_LOC_136/Y VSS VDD
+ OR2X1_LOC_43/A OR2X1_LOC_3/Y OR2X1_LOC
XAND2X1_LOC_90 AND2X1_LOC_90/a_36_24# AND2X1_LOC_91/B AND2X1_LOC_90/a_8_24# VSS VDD
+ AND2X1_LOC_42/B OR2X1_LOC_62/A AND2X1_LOC
XOR2X1_LOC_681 OR2X1_LOC_681/a_8_216# OR2X1_LOC_681/a_36_216# OR2X1_LOC_681/Y VSS VDD
+ OR2X1_LOC_743/A OR2X1_LOC_31/Y OR2X1_LOC
XOR2X1_LOC_692 OR2X1_LOC_692/a_8_216# OR2X1_LOC_692/a_36_216# OR2X1_LOC_692/Y VSS VDD
+ OR2X1_LOC_48/B OR2X1_LOC_18/Y OR2X1_LOC
XOR2X1_LOC_670 OR2X1_LOC_670/a_8_216# OR2X1_LOC_670/a_36_216# OR2X1_LOC_670/Y VSS VDD
+ OR2X1_LOC_485/A OR2X1_LOC_40/Y OR2X1_LOC
XAND2X1_LOC_191 AND2X1_LOC_191/a_36_24# AND2X1_LOC_191/Y AND2X1_LOC_191/a_8_24# VSS VDD
+ OR2X1_LOC_187/Y AND2X1_LOC_191/B AND2X1_LOC
XAND2X1_LOC_180 AND2X1_LOC_180/a_36_24# AND2X1_LOC_182/A AND2X1_LOC_180/a_8_24# VSS VDD
+ OR2X1_LOC_176/Y OR2X1_LOC_177/Y AND2X1_LOC
XAND2X1_LOC_735 AND2X1_LOC_735/a_36_24# AND2X1_LOC_735/Y AND2X1_LOC_735/a_8_24# VSS VDD
+ AND2X1_LOC_501/Y AND2X1_LOC_658/B AND2X1_LOC
XAND2X1_LOC_757 AND2X1_LOC_757/a_36_24# OR2X1_LOC_791/A AND2X1_LOC_757/a_8_24# VSS VDD
+ AND2X1_LOC_44/Y OR2X1_LOC_756/Y AND2X1_LOC
XAND2X1_LOC_702 AND2X1_LOC_702/a_36_24# AND2X1_LOC_702/Y AND2X1_LOC_702/a_8_24# VSS VDD
+ OR2X1_LOC_45/Y OR2X1_LOC_135/Y AND2X1_LOC
XAND2X1_LOC_746 AND2X1_LOC_746/a_36_24# OR2X1_LOC_781/A AND2X1_LOC_746/a_8_24# VSS VDD
+ OR2X1_LOC_185/A OR2X1_LOC_375/A AND2X1_LOC
XAND2X1_LOC_724 AND2X1_LOC_724/a_36_24# AND2X1_LOC_724/Y AND2X1_LOC_724/a_8_24# VSS VDD
+ AND2X1_LOC_724/A AND2X1_LOC_715/Y AND2X1_LOC
XAND2X1_LOC_713 AND2X1_LOC_713/a_36_24# AND2X1_LOC_713/Y AND2X1_LOC_713/a_8_24# VSS VDD
+ AND2X1_LOC_705/Y AND2X1_LOC_706/Y AND2X1_LOC
XAND2X1_LOC_768 AND2X1_LOC_768/a_36_24# AND2X1_LOC_772/B AND2X1_LOC_768/a_8_24# VSS VDD
+ OR2X1_LOC_103/Y OR2X1_LOC_134/Y AND2X1_LOC
XAND2X1_LOC_779 AND2X1_LOC_779/a_36_24# AND2X1_LOC_779/Y AND2X1_LOC_779/a_8_24# VSS VDD
+ OR2X1_LOC_511/Y OR2X1_LOC_697/Y AND2X1_LOC
XOR2X1_LOC_307 OR2X1_LOC_307/a_8_216# OR2X1_LOC_307/a_36_216# OR2X1_LOC_308/A VSS VDD
+ OR2X1_LOC_307/A OR2X1_LOC_307/B OR2X1_LOC
XOR2X1_LOC_329 OR2X1_LOC_329/a_8_216# OR2X1_LOC_329/a_36_216# OR2X1_LOC_329/Y VSS VDD
+ OR2X1_LOC_421/A OR2X1_LOC_329/B OR2X1_LOC
XAND2X1_LOC_510 AND2X1_LOC_510/a_36_24# AND2X1_LOC_574/A AND2X1_LOC_510/a_8_24# VSS VDD
+ AND2X1_LOC_510/A AND2X1_LOC_509/Y AND2X1_LOC
XAND2X1_LOC_576 AND2X1_LOC_576/a_36_24# AND2X1_LOC_576/Y AND2X1_LOC_576/a_8_24# VSS VDD
+ AND2X1_LOC_571/Y AND2X1_LOC_572/Y AND2X1_LOC
XAND2X1_LOC_554 AND2X1_LOC_554/a_36_24# AND2X1_LOC_554/Y AND2X1_LOC_554/a_8_24# VSS VDD
+ OR2X1_LOC_106/Y AND2X1_LOC_554/B AND2X1_LOC
XAND2X1_LOC_521 AND2X1_LOC_521/a_36_24# OR2X1_LOC_523/B AND2X1_LOC_521/a_8_24# VSS VDD
+ AND2X1_LOC_18/Y OR2X1_LOC_87/A AND2X1_LOC
XAND2X1_LOC_565 AND2X1_LOC_565/a_36_24# AND2X1_LOC_565/Y AND2X1_LOC_565/a_8_24# VSS VDD
+ AND2X1_LOC_549/Y AND2X1_LOC_565/B AND2X1_LOC