* SPICE3 file created from dualRail.ext - technology: scmos

.subckt POR2X1 VDD GND B A Y m4_208_n4# O CTRL2 a_16_28# CTRL a_76_344# a_56_344#
X0 a_16_28# A GND GND NMOS_MAGIC ad=0.44p pd=3.8u as=3.39p ps=17u w=0.4u l=0.2u
**devattr s=S d=D
X1 O CTRL VDD VDD PMOS_MAGIC ad=1.72p pd=7.8u as=5.94p ps=27.8u w=3.3u l=0.2u
**devattr s=S d=D
X2 CTRL GND GND GND NMOS_MAGIC ad=1.75p pd=8u as=0p ps=0u w=3.5u l=0.2u
**devattr s=S d=D
X3 a_56_344# B VDD VDD PMOS_MAGIC ad=0.21p pd=2u as=0p ps=0u w=0.7u l=0.2u
**devattr s=S d=D
X4 Y O GND GND NMOS_MAGIC ad=1p pd=5u as=0p ps=0u w=2u l=0.2u
**devattr s=S d=D
X5 Y O VDD VDD PMOS_MAGIC ad=1.95p pd=8.8u as=0p ps=0u w=3.9u l=0.2u
**devattr s=S d=D
X6 CTRL2 CTRL GND GND NMOS_MAGIC ad=0.2p pd=1.8u as=0p ps=0u w=0.4u l=0.2u
**devattr s=S d=D
X7 O CTRL2 a_76_344# VDD PMOS_MAGIC ad=0p pd=0u as=0.42p ps=2.6u w=0.7u l=0.2u
**devattr s=S d=D
X8 CTRL GND VDD VDD PMOS_MAGIC ad=0.2p pd=1.8u as=0p ps=0u w=0.4u l=0.2u
**devattr s=S d=D
X9 O CTRL a_16_28# GND NMOS_MAGIC ad=1.04p pd=5.2u as=0p ps=0u w=0.4u l=0.2u
**devattr s=S d=D
X10 a_76_344# A a_56_344# VDD PMOS_MAGIC ad=0p pd=0u as=0p ps=0u w=0.7u l=0.2u
**devattr s=S d=D
X11 a_16_28# B GND GND NMOS_MAGIC ad=0p pd=0u as=0p ps=0u w=0.4u l=0.2u
**devattr s=S d=D
X12 CTRL2 CTRL VDD VDD PMOS_MAGIC ad=1.95p pd=8.8u as=0p ps=0u w=3.9u l=0.2u
**devattr s=S d=D
X13 O CTRL2 GND GND NMOS_MAGIC ad=0p pd=0u as=0p ps=0u w=2u l=0.2u
**devattr s=S d=D
C0 O A 0.13fF
C1 a_16_28# B 0.02fF
C2 O Y 0.05fF
C3 O a_76_344# 0.07fF
C4 a_16_28# A 0.10fF
C5 VDD B 0.36fF
C6 O a_16_28# 0.21fF
C7 CTRL2 VDD 1.37fF
C8 CTRL VDD 1.32fF
C9 VDD A 0.28fF
C10 O VDD 0.59fF
C11 B A 0.47fF
C12 VDD Y 0.54fF
C13 O B 0.08fF
C14 CTRL2 CTRL 0.32fF
C15 CTRL2 A 0.13fF
C16 a_76_344# VDD 0.05fF
C17 CTRL2 O 0.27fF
C18 CTRL A 0.16fF
C19 CTRL O 0.15fF
C20 Y 0 0.50fF
C21 A 0 0.35fF
C22 B 0 0.27fF
C23 VDD 0 4.59fF
C24 GND 0 -0.16fF
C25 m4_208_n4# 0 0.01fF
C26 a_16_28# 0 0.33fF
C27 a_76_344# 0 0.00fF
C28 O 0 0.33fF
C29 CTRL 0 0.70fF
C30 CTRL2 0 0.39fF
.ends

.subckt PAND2X1 VDD GND B A Y a_16_344# m4_208_n4# O a_56_28# CTRL2 CTRL a_76_28#
X0 a_56_28# A a_76_28# GND NMOS_MAGIC ad=0.15p pd=1.6u as=0.3p ps=2.2u w=0.5u l=0.2u
**devattr s=S d=D
X1 CTRL GND GND GND NMOS_MAGIC ad=1.75p pd=8u as=3.22p ps=15.2u w=3.5u l=0.2u
**devattr s=S d=D
X2 O B a_16_344# VDD PMOS_MAGIC ad=1.72p pd=8.8u as=0.77p ps=5u w=0.7u l=0.2u
**devattr s=S d=D
X3 Y O GND GND NMOS_MAGIC ad=1.1p pd=5.4u as=0p ps=0u w=2.2u l=0.2u
**devattr s=S d=D
X4 Y O VDD VDD PMOS_MAGIC ad=1.95p pd=8.8u as=5.31p ps=24.2u w=3.9u l=0.2u
**devattr s=S d=D
X5 CTRL2 CTRL GND GND NMOS_MAGIC ad=0.2p pd=1.8u as=0p ps=0u w=0.4u l=0.2u
**devattr s=S d=D
X6 a_16_344# CTRL2 VDD VDD PMOS_MAGIC ad=0p pd=0u as=0p ps=0u w=0.7u l=0.2u
**devattr s=S d=D
X7 CTRL GND VDD VDD PMOS_MAGIC ad=0.2p pd=1.8u as=0p ps=0u w=0.4u l=0.2u
**devattr s=S d=D
X8 a_76_28# CTRL GND GND NMOS_MAGIC ad=0p pd=0u as=0p ps=0u w=0.5u l=0.2u
**devattr s=S d=D
X9 O A a_16_344# VDD PMOS_MAGIC ad=0p pd=0u as=0p ps=0u w=0.7u l=0.2u
**devattr s=S d=D
X10 O B a_56_28# GND NMOS_MAGIC ad=1.25p pd=7u as=0p ps=0u w=0.5u l=0.2u
**devattr s=S d=D
X11 CTRL2 CTRL VDD VDD PMOS_MAGIC ad=1.95p pd=8.8u as=0p ps=0u w=3.9u l=0.2u
**devattr s=S d=D
X12 O CTRL VDD VDD PMOS_MAGIC ad=0p pd=0u as=0p ps=0u w=2.6u l=0.2u
**devattr s=S d=D
X13 O CTRL2 GND GND NMOS_MAGIC ad=0p pd=0u as=0p ps=0u w=2u l=0.2u
**devattr s=S d=D
C0 O A 0.17fF
C1 a_76_28# B 0.01fF
C2 O Y 0.05fF
C3 a_16_344# A 0.01fF
C4 O a_16_344# 0.17fF
C5 a_76_28# A 0.01fF
C6 VDD B 0.36fF
C7 O a_76_28# 0.05fF
C8 CTRL2 VDD 0.86fF
C9 a_56_28# a_76_28# 0.00fF
C10 CTRL VDD 1.37fF
C11 VDD A 0.28fF
C12 O VDD 0.78fF
C13 B A 0.49fF
C14 VDD Y 0.54fF
C15 a_16_344# VDD 0.19fF
C16 O B 0.13fF
C17 CTRL2 CTRL 0.34fF
C18 CTRL2 A 0.13fF
C19 a_16_344# B 0.01fF
C20 CTRL2 O 1.20fF
C21 CTRL A 0.16fF
C22 CTRL O 0.19fF
C23 Y 0 0.50fF
C24 A 0 0.34fF
C25 B 0 0.27fF
C26 VDD 0 4.59fF
C27 GND 0 -0.15fF
C28 m4_208_n4# 0 0.01fF
C29 a_76_28# 0 0.02fF
C30 a_16_344# 0 -0.00fF
C31 O 0 0.47fF
C32 CTRL 0 0.70fF
C33 CTRL2 0 0.39fF
.ends

.subckt dualRail INPUT_0 D_INPUT_0 INPUT_1 D_INPUT_1 INPUT_2 D_INPUT_2 INPUT_3 D_INPUT_3
+ INPUT_4 D_INPUT_4 INPUT_5 D_INPUT_5 INPUT_6 D_INPUT_6 INPUT_7 D_INPUT_7 D_GATE_222
+ D_GATE_366 D_GATE_479 D_GATE_579 D_GATE_662 D_GATE_741 D_GATE_811 D_GATE_865 GATE_222
+ GATE_366 GATE_479 GATE_579 GATE_662 GATE_741 GATE_811 GATE_865 gate type: AND; name:
+ GATE_0_I0
XPOR2X1_717 VDD GND POR2X1_717/B POR2X1_558/B POR2X1_717/Y POR2X1_717/m4_208_n4# POR2X1_717/O
+ POR2X1_717/CTRL2 POR2X1_717/a_16_28# POR2X1_717/CTRL POR2X1_717/a_76_344# POR2X1_717/a_56_344#
+ POR2X1
XPOR2X1_706 VDD GND POR2X1_706/B POR2X1_706/A POR2X1_713/A POR2X1_706/m4_208_n4# POR2X1_706/O
+ POR2X1_706/CTRL2 POR2X1_706/a_16_28# POR2X1_706/CTRL POR2X1_706/a_76_344# POR2X1_706/a_56_344#
+ POR2X1
XPOR2X1_728 VDD GND POR2X1_728/B POR2X1_728/A POR2X1_730/B POR2X1_728/m4_208_n4# POR2X1_728/O
+ POR2X1_728/CTRL2 POR2X1_728/a_16_28# POR2X1_728/CTRL POR2X1_728/a_76_344# POR2X1_728/a_56_344#
+ POR2X1
XPOR2X1_739 VDD GND POR2X1_192/Y POR2X1_730/Y POR2X1_740/A POR2X1_739/m4_208_n4# POR2X1_739/O
+ POR2X1_739/CTRL2 POR2X1_739/a_16_28# POR2X1_739/CTRL POR2X1_739/a_76_344# POR2X1_739/a_56_344#
+ POR2X1
XPOR2X1_514 VDD GND INPUT_0 POR2X1_138/A POR2X1_514/Y POR2X1_514/m4_208_n4# POR2X1_514/O
+ POR2X1_514/CTRL2 POR2X1_514/a_16_28# POR2X1_514/CTRL POR2X1_514/a_76_344# POR2X1_514/a_56_344#
+ POR2X1
XPOR2X1_503 VDD GND POR2X1_65/A POR2X1_503/A POR2X1_503/Y POR2X1_503/m4_208_n4# POR2X1_503/O
+ POR2X1_503/CTRL2 POR2X1_503/a_16_28# POR2X1_503/CTRL POR2X1_503/a_76_344# POR2X1_503/a_56_344#
+ POR2X1
XPOR2X1_525 VDD GND POR2X1_41/B POR2X1_52/A POR2X1_525/Y POR2X1_525/m4_208_n4# POR2X1_525/O
+ POR2X1_525/CTRL2 POR2X1_525/a_16_28# POR2X1_525/CTRL POR2X1_525/a_76_344# POR2X1_525/a_56_344#
+ POR2X1
XPOR2X1_547 VDD GND POR2X1_547/B POR2X1_620/B POR2X1_550/A POR2X1_547/m4_208_n4# POR2X1_547/O
+ POR2X1_547/CTRL2 POR2X1_547/a_16_28# POR2X1_547/CTRL POR2X1_547/a_76_344# POR2X1_547/a_56_344#
+ POR2X1
XPOR2X1_536 VDD GND POR2X1_13/A POR2X1_102/Y POR2X1_536/Y POR2X1_536/m4_208_n4# POR2X1_536/O
+ POR2X1_536/CTRL2 POR2X1_536/a_16_28# POR2X1_536/CTRL POR2X1_536/a_76_344# POR2X1_536/a_56_344#
+ POR2X1
XPOR2X1_569 VDD GND POR2X1_564/Y POR2X1_569/A POR2X1_569/Y POR2X1_569/m4_208_n4# POR2X1_569/O
+ POR2X1_569/CTRL2 POR2X1_569/a_16_28# POR2X1_569/CTRL POR2X1_569/a_76_344# POR2X1_569/a_56_344#
+ POR2X1
XPOR2X1_558 VDD GND POR2X1_558/B POR2X1_558/A POR2X1_558/Y POR2X1_558/m4_208_n4# POR2X1_558/O
+ POR2X1_558/CTRL2 POR2X1_558/a_16_28# POR2X1_558/CTRL POR2X1_558/a_76_344# POR2X1_558/a_56_344#
+ POR2X1
XPOR2X1_300 VDD GND POR2X1_60/A POR2X1_119/Y POR2X1_300/Y POR2X1_300/m4_208_n4# POR2X1_300/O
+ POR2X1_300/CTRL2 POR2X1_300/a_16_28# POR2X1_300/CTRL POR2X1_300/a_76_344# POR2X1_300/a_56_344#
+ POR2X1
XPOR2X1_333 VDD GND POR2X1_174/B POR2X1_333/A POR2X1_333/Y POR2X1_333/m4_208_n4# POR2X1_333/O
+ POR2X1_333/CTRL2 POR2X1_333/a_16_28# POR2X1_333/CTRL POR2X1_333/a_76_344# POR2X1_333/a_56_344#
+ POR2X1
XPOR2X1_344 VDD GND POR2X1_254/Y POR2X1_344/A POR2X1_344/Y POR2X1_344/m4_208_n4# POR2X1_344/O
+ POR2X1_344/CTRL2 POR2X1_344/a_16_28# POR2X1_344/CTRL POR2X1_344/a_76_344# POR2X1_344/a_56_344#
+ POR2X1
XPOR2X1_322 VDD GND POR2X1_57/A POR2X1_376/B POR2X1_322/Y POR2X1_322/m4_208_n4# POR2X1_322/O
+ POR2X1_322/CTRL2 POR2X1_322/a_16_28# POR2X1_322/CTRL POR2X1_322/a_76_344# POR2X1_322/a_56_344#
+ POR2X1
XPOR2X1_311 VDD GND POR2X1_83/B POR2X1_102/Y POR2X1_311/Y POR2X1_311/m4_208_n4# POR2X1_311/O
+ POR2X1_311/CTRL2 POR2X1_311/a_16_28# POR2X1_311/CTRL POR2X1_311/a_76_344# POR2X1_311/a_56_344#
+ POR2X1
XPOR2X1_355 VDD GND POR2X1_355/B POR2X1_355/A POR2X1_356/A POR2X1_355/m4_208_n4# POR2X1_355/O
+ POR2X1_355/CTRL2 POR2X1_355/a_16_28# POR2X1_355/CTRL POR2X1_355/a_76_344# POR2X1_355/a_56_344#
+ POR2X1
XPOR2X1_377 VDD GND POR2X1_7/B PAND2X1_94/A POR2X1_378/A POR2X1_377/m4_208_n4# POR2X1_377/O
+ POR2X1_377/CTRL2 POR2X1_377/a_16_28# POR2X1_377/CTRL POR2X1_377/a_76_344# POR2X1_377/a_56_344#
+ POR2X1
XPOR2X1_366 VDD GND POR2X1_362/Y POR2X1_366/A POR2X1_366/Y POR2X1_366/m4_208_n4# POR2X1_366/O
+ POR2X1_366/CTRL2 POR2X1_366/a_16_28# POR2X1_366/CTRL POR2X1_366/a_76_344# POR2X1_366/a_56_344#
+ POR2X1
XPOR2X1_399 VDD GND POR2X1_57/A POR2X1_399/A POR2X1_399/Y POR2X1_399/m4_208_n4# POR2X1_399/O
+ POR2X1_399/CTRL2 POR2X1_399/a_16_28# POR2X1_399/CTRL POR2X1_399/a_76_344# POR2X1_399/a_56_344#
+ POR2X1
XPOR2X1_388 VDD GND POR2X1_169/A POR2X1_180/B POR2X1_390/B POR2X1_388/m4_208_n4# POR2X1_388/O
+ POR2X1_388/CTRL2 POR2X1_388/a_16_28# POR2X1_388/CTRL POR2X1_388/a_76_344# POR2X1_388/a_56_344#
+ POR2X1
XPAND2X1_307 VDD GND POR2X1_305/Y POR2X1_304/Y PAND2X1_308/B PAND2X1_307/a_16_344#
+ PAND2X1_307/m4_208_n4# PAND2X1_307/O PAND2X1_307/a_56_28# PAND2X1_307/CTRL2 PAND2X1_307/CTRL
+ PAND2X1_307/a_76_28# PAND2X1
XPAND2X1_318 VDD GND POR2X1_316/Y POR2X1_315/Y PAND2X1_319/B PAND2X1_318/a_16_344#
+ PAND2X1_318/m4_208_n4# PAND2X1_318/O PAND2X1_318/a_56_28# PAND2X1_318/CTRL2 PAND2X1_318/CTRL
+ PAND2X1_318/a_76_28# PAND2X1
XPAND2X1_329 VDD GND POR2X1_596/A POR2X1_327/Y POR2X1_355/B PAND2X1_329/a_16_344#
+ POR2X1_149/m4_208_n4# PAND2X1_329/O PAND2X1_329/a_56_28# PAND2X1_329/CTRL2 PAND2X1_329/CTRL
+ PAND2X1_329/a_76_28# PAND2X1
XPAND2X1_841 VDD GND PAND2X1_841/B PAND2X1_831/Y PAND2X1_841/Y PAND2X1_841/a_16_344#
+ PAND2X1_841/m4_208_n4# PAND2X1_841/O PAND2X1_841/a_56_28# PAND2X1_841/CTRL2 PAND2X1_841/CTRL
+ PAND2X1_841/a_76_28# PAND2X1
XPAND2X1_830 VDD GND POR2X1_142/Y POR2X1_108/Y PAND2X1_830/Y PAND2X1_830/a_16_344#
+ PAND2X1_830/m4_208_n4# PAND2X1_830/O PAND2X1_830/a_56_28# PAND2X1_830/CTRL2 PAND2X1_830/CTRL
+ PAND2X1_830/a_76_28# PAND2X1
XPAND2X1_863 VDD GND PAND2X1_863/B PAND2X1_863/A PAND2X1_864/B PAND2X1_863/a_16_344#
+ PAND2X1_863/m4_208_n4# PAND2X1_863/O PAND2X1_863/a_56_28# PAND2X1_863/CTRL2 PAND2X1_863/CTRL
+ PAND2X1_863/a_76_28# PAND2X1
XPAND2X1_852 VDD GND PAND2X1_852/B PAND2X1_852/A PAND2X1_857/A PAND2X1_852/a_16_344#
+ POR2X1_821/m4_208_n4# PAND2X1_852/O PAND2X1_852/a_56_28# PAND2X1_852/CTRL2 PAND2X1_852/CTRL
+ PAND2X1_852/a_76_28# PAND2X1
XPOR2X1_130 VDD GND PAND2X1_6/Y POR2X1_130/A POR2X1_130/Y POR2X1_141/m4_208_n4# POR2X1_130/O
+ POR2X1_130/CTRL2 POR2X1_130/a_16_28# POR2X1_130/CTRL POR2X1_130/a_76_344# POR2X1_130/a_56_344#
+ POR2X1
XPOR2X1_141 VDD GND POR2X1_139/Y POR2X1_141/A POR2X1_141/Y POR2X1_141/m4_208_n4# POR2X1_141/O
+ POR2X1_141/CTRL2 POR2X1_141/a_16_28# POR2X1_141/CTRL POR2X1_141/a_76_344# POR2X1_141/a_56_344#
+ POR2X1
XPOR2X1_152 VDD GND POR2X1_48/A POR2X1_152/A POR2X1_152/Y POR2X1_152/m4_208_n4# POR2X1_152/O
+ POR2X1_152/CTRL2 POR2X1_152/a_16_28# POR2X1_152/CTRL POR2X1_152/a_76_344# POR2X1_152/a_56_344#
+ POR2X1
XPOR2X1_174 VDD GND POR2X1_174/B POR2X1_174/A POR2X1_175/A POR2X1_174/m4_208_n4# POR2X1_174/O
+ POR2X1_174/CTRL2 POR2X1_174/a_16_28# POR2X1_174/CTRL POR2X1_174/a_76_344# POR2X1_174/a_56_344#
+ POR2X1
XPOR2X1_163 VDD GND POR2X1_52/A POR2X1_163/A POR2X1_163/Y POR2X1_163/m4_208_n4# POR2X1_163/O
+ POR2X1_163/CTRL2 POR2X1_163/a_16_28# POR2X1_163/CTRL POR2X1_163/a_76_344# POR2X1_163/a_56_344#
+ POR2X1
XPOR2X1_185 VDD GND PAND2X1_55/Y PAND2X1_73/Y POR2X1_188/A POR2X1_185/m4_208_n4# POR2X1_185/O
+ POR2X1_185/CTRL2 POR2X1_185/a_16_28# POR2X1_185/CTRL POR2X1_185/a_76_344# POR2X1_185/a_56_344#
+ POR2X1
XPOR2X1_196 VDD GND POR2X1_702/B PAND2X1_48/Y POR2X1_196/Y POR2X1_196/m4_208_n4# POR2X1_196/O
+ POR2X1_196/CTRL2 POR2X1_196/a_16_28# POR2X1_196/CTRL POR2X1_196/a_76_344# POR2X1_196/a_56_344#
+ POR2X1
XPAND2X1_115 VDD GND PAND2X1_115/B POR2X1_106/Y PAND2X1_115/Y PAND2X1_115/a_16_344#
+ PAND2X1_115/m4_208_n4# PAND2X1_115/O PAND2X1_115/a_56_28# PAND2X1_115/CTRL2 PAND2X1_115/CTRL
+ PAND2X1_115/a_76_28# PAND2X1
XPAND2X1_126 VDD GND PAND2X1_90/A PAND2X1_6/A POR2X1_532/A PAND2X1_126/a_16_344# PAND2X1_126/m4_208_n4#
+ PAND2X1_126/O PAND2X1_126/a_56_28# PAND2X1_126/CTRL2 PAND2X1_126/CTRL PAND2X1_126/a_76_28#
+ PAND2X1
XPAND2X1_104 VDD GND PAND2X1_8/Y PAND2X1_6/A POR2X1_814/B PAND2X1_104/a_16_344# PAND2X1_104/m4_208_n4#
+ PAND2X1_104/O PAND2X1_104/a_56_28# PAND2X1_104/CTRL2 PAND2X1_104/CTRL PAND2X1_104/a_76_28#
+ PAND2X1
XPAND2X1_137 VDD GND POR2X1_134/Y POR2X1_132/Y PAND2X1_137/Y PAND2X1_137/a_16_344#
+ PAND2X1_137/m4_208_n4# PAND2X1_137/O PAND2X1_137/a_56_28# PAND2X1_137/CTRL2 PAND2X1_137/CTRL
+ PAND2X1_137/a_76_28# PAND2X1
XPAND2X1_148 VDD GND POR2X1_146/Y POR2X1_145/Y PAND2X1_148/Y PAND2X1_148/a_16_344#
+ PAND2X1_148/m4_208_n4# PAND2X1_148/O PAND2X1_148/a_56_28# PAND2X1_148/CTRL2 PAND2X1_148/CTRL
+ PAND2X1_148/a_76_28# PAND2X1
XPAND2X1_159 VDD GND PAND2X1_9/Y POR2X1_68/B POR2X1_750/B PAND2X1_159/a_16_344# PAND2X1_159/m4_208_n4#
+ PAND2X1_159/O PAND2X1_159/a_56_28# PAND2X1_159/CTRL2 PAND2X1_159/CTRL PAND2X1_159/a_76_28#
+ PAND2X1
XPOR2X1_70 VDD GND POR2X1_3/A POR2X1_51/A POR2X1_72/B POR2X1_70/m4_208_n4# POR2X1_70/O
+ POR2X1_70/CTRL2 POR2X1_70/a_16_28# POR2X1_70/CTRL POR2X1_70/a_76_344# POR2X1_70/a_56_344#
+ POR2X1
XPOR2X1_92 VDD GND D_INPUT_1 POR2X1_8/Y POR2X1_93/A POR2X1_92/m4_208_n4# POR2X1_92/O
+ POR2X1_92/CTRL2 POR2X1_92/a_16_28# POR2X1_92/CTRL POR2X1_92/a_76_344# POR2X1_92/a_56_344#
+ POR2X1
XPOR2X1_81 VDD GND POR2X1_60/A POR2X1_81/A POR2X1_81/Y POR2X1_81/m4_208_n4# POR2X1_81/O
+ POR2X1_81/CTRL2 POR2X1_81/a_16_28# POR2X1_81/CTRL POR2X1_81/a_76_344# POR2X1_81/a_56_344#
+ POR2X1
XPAND2X1_682 VDD GND POR2X1_750/B PAND2X1_69/A POR2X1_685/A PAND2X1_682/a_16_344#
+ PAND2X1_682/m4_208_n4# PAND2X1_682/O PAND2X1_682/a_56_28# PAND2X1_682/CTRL2 PAND2X1_682/CTRL
+ PAND2X1_682/a_76_28# PAND2X1
XPAND2X1_671 VDD GND PAND2X1_6/A INPUT_2 PAND2X1_671/Y PAND2X1_671/a_16_344# PAND2X1_671/m4_208_n4#
+ PAND2X1_671/O PAND2X1_671/a_56_28# PAND2X1_671/CTRL2 PAND2X1_671/CTRL PAND2X1_671/a_76_28#
+ PAND2X1
XPAND2X1_660 VDD GND PAND2X1_660/B PAND2X1_655/Y PAND2X1_660/Y PAND2X1_660/a_16_344#
+ PAND2X1_660/m4_208_n4# PAND2X1_660/O PAND2X1_660/a_56_28# PAND2X1_660/CTRL2 PAND2X1_660/CTRL
+ PAND2X1_660/a_76_28# PAND2X1
XPAND2X1_693 VDD GND PAND2X1_69/A PAND2X1_94/A POR2X1_706/A PAND2X1_693/a_16_344#
+ PAND2X1_693/m4_208_n4# PAND2X1_693/O PAND2X1_693/a_56_28# PAND2X1_693/CTRL2 PAND2X1_693/CTRL
+ PAND2X1_693/a_76_28# PAND2X1
XPAND2X1_3 VDD GND PAND2X1_3/B PAND2X1_3/A POR2X1_66/B PAND2X1_3/a_16_344# PAND2X1_3/m4_208_n4#
+ PAND2X1_3/O PAND2X1_3/a_56_28# PAND2X1_3/CTRL2 PAND2X1_3/CTRL PAND2X1_3/a_76_28#
+ PAND2X1
XPAND2X1_490 VDD GND PAND2X1_85/Y POR2X1_4/Y POR2X1_557/A PAND2X1_490/a_16_344# PAND2X1_63/m4_208_n4#
+ PAND2X1_490/O PAND2X1_490/a_56_28# PAND2X1_490/CTRL2 PAND2X1_490/CTRL PAND2X1_490/a_76_28#
+ PAND2X1
XPOR2X1_707 VDD GND POR2X1_707/B POR2X1_707/A POR2X1_707/Y POR2X1_707/m4_208_n4# POR2X1_707/O
+ POR2X1_707/CTRL2 POR2X1_707/a_16_28# POR2X1_707/CTRL POR2X1_707/a_76_344# POR2X1_707/a_56_344#
+ POR2X1
XPOR2X1_718 VDD GND POR2X1_593/B POR2X1_718/A POR2X1_722/B POR2X1_718/m4_208_n4# POR2X1_718/O
+ POR2X1_718/CTRL2 POR2X1_718/a_16_28# POR2X1_718/CTRL POR2X1_718/a_76_344# POR2X1_718/a_56_344#
+ POR2X1
XPOR2X1_729 VDD GND POR2X1_687/Y POR2X1_855/B POR2X1_729/Y POR2X1_729/m4_208_n4# POR2X1_729/O
+ POR2X1_729/CTRL2 POR2X1_729/a_16_28# POR2X1_729/CTRL POR2X1_729/a_76_344# POR2X1_729/a_56_344#
+ POR2X1
XPOR2X1_515 VDD GND POR2X1_446/B POR2X1_514/Y POR2X1_515/Y POR2X1_515/m4_208_n4# POR2X1_515/O
+ POR2X1_515/CTRL2 POR2X1_515/a_16_28# POR2X1_515/CTRL POR2X1_515/a_76_344# POR2X1_515/a_56_344#
+ POR2X1
XPOR2X1_526 VDD GND POR2X1_32/A POR2X1_669/B POR2X1_526/Y POR2X1_526/m4_208_n4# POR2X1_526/O
+ POR2X1_526/CTRL2 POR2X1_526/a_16_28# POR2X1_526/CTRL POR2X1_526/a_76_344# POR2X1_526/a_56_344#
+ POR2X1
XPOR2X1_504 VDD GND POR2X1_41/B POR2X1_416/B POR2X1_504/Y POR2X1_504/m4_208_n4# POR2X1_504/O
+ POR2X1_504/CTRL2 POR2X1_504/a_16_28# POR2X1_504/CTRL POR2X1_504/a_76_344# POR2X1_504/a_56_344#
+ POR2X1
XPOR2X1_548 VDD GND POR2X1_548/B POR2X1_548/A POR2X1_549/A POR2X1_548/m4_208_n4# POR2X1_548/O
+ POR2X1_548/CTRL2 POR2X1_548/a_16_28# POR2X1_548/CTRL POR2X1_548/a_76_344# POR2X1_548/a_56_344#
+ POR2X1
XPOR2X1_559 VDD GND POR2X1_559/B POR2X1_559/A POR2X1_559/Y POR2X1_559/m4_208_n4# POR2X1_559/O
+ POR2X1_559/CTRL2 POR2X1_559/a_16_28# POR2X1_559/CTRL POR2X1_559/a_76_344# POR2X1_559/a_56_344#
+ POR2X1
XPOR2X1_537 VDD GND POR2X1_537/B POR2X1_537/A POR2X1_537/Y POR2X1_537/m4_208_n4# POR2X1_537/O
+ POR2X1_537/CTRL2 POR2X1_537/a_16_28# POR2X1_537/CTRL POR2X1_537/a_76_344# POR2X1_537/a_56_344#
+ POR2X1
XPOR2X1_301 VDD GND POR2X1_76/A POR2X1_301/A POR2X1_303/B POR2X1_301/m4_208_n4# POR2X1_301/O
+ POR2X1_301/CTRL2 POR2X1_301/a_16_28# POR2X1_301/CTRL POR2X1_301/a_76_344# POR2X1_301/a_56_344#
+ POR2X1
XPOR2X1_334 VDD GND POR2X1_334/B POR2X1_334/A POR2X1_334/Y POR2X1_334/m4_208_n4# POR2X1_334/O
+ POR2X1_334/CTRL2 POR2X1_334/a_16_28# POR2X1_334/CTRL POR2X1_334/a_76_344# POR2X1_334/a_56_344#
+ POR2X1
XPOR2X1_323 VDD GND POR2X1_96/A POR2X1_110/Y POR2X1_323/Y POR2X1_164/m4_208_n4# POR2X1_323/O
+ POR2X1_323/CTRL2 POR2X1_323/a_16_28# POR2X1_323/CTRL POR2X1_323/a_76_344# POR2X1_323/a_56_344#
+ POR2X1
XPOR2X1_312 VDD GND POR2X1_55/Y POR2X1_65/A POR2X1_312/Y POR2X1_312/m4_208_n4# POR2X1_312/O
+ POR2X1_312/CTRL2 POR2X1_312/a_16_28# POR2X1_312/CTRL POR2X1_312/a_76_344# POR2X1_312/a_56_344#
+ POR2X1
XPOR2X1_345 VDD GND POR2X1_555/B POR2X1_345/A POR2X1_348/A POR2X1_345/m4_208_n4# POR2X1_345/O
+ POR2X1_345/CTRL2 POR2X1_345/a_16_28# POR2X1_345/CTRL POR2X1_345/a_76_344# POR2X1_345/a_56_344#
+ POR2X1
XPOR2X1_367 VDD GND POR2X1_365/Y POR2X1_366/Y D_GATE_366 POR2X1_367/m4_208_n4# POR2X1_367/O
+ POR2X1_367/CTRL2 POR2X1_367/a_16_28# POR2X1_367/CTRL POR2X1_367/a_76_344# POR2X1_367/a_56_344#
+ POR2X1
XPOR2X1_356 VDD GND POR2X1_356/B POR2X1_356/A POR2X1_356/Y POR2X1_356/m4_208_n4# POR2X1_356/O
+ POR2X1_356/CTRL2 POR2X1_356/a_16_28# POR2X1_356/CTRL POR2X1_356/a_76_344# POR2X1_356/a_56_344#
+ POR2X1
XPOR2X1_378 VDD GND POR2X1_296/B POR2X1_378/A POR2X1_378/Y POR2X1_378/m4_208_n4# POR2X1_378/O
+ POR2X1_378/CTRL2 POR2X1_378/a_16_28# POR2X1_378/CTRL POR2X1_378/a_76_344# POR2X1_378/a_56_344#
+ POR2X1
XPOR2X1_389 VDD GND POR2X1_537/B POR2X1_389/A POR2X1_389/Y POR2X1_389/m4_208_n4# POR2X1_389/O
+ POR2X1_389/CTRL2 POR2X1_389/a_16_28# POR2X1_389/CTRL POR2X1_389/a_76_344# POR2X1_389/a_56_344#
+ POR2X1
XPAND2X1_308 VDD GND PAND2X1_308/B POR2X1_306/Y PAND2X1_308/Y PAND2X1_308/a_16_344#
+ PAND2X1_308/m4_208_n4# PAND2X1_308/O PAND2X1_308/a_56_28# PAND2X1_308/CTRL2 PAND2X1_308/CTRL
+ PAND2X1_308/a_76_28# PAND2X1
XPAND2X1_319 VDD GND PAND2X1_319/B PAND2X1_317/Y PAND2X1_354/A PAND2X1_319/a_16_344#
+ PAND2X1_319/m4_208_n4# PAND2X1_319/O PAND2X1_319/a_56_28# PAND2X1_319/CTRL2 PAND2X1_319/CTRL
+ PAND2X1_319/a_76_28# PAND2X1
XPAND2X1_820 VDD GND PAND2X1_820/B POR2X1_818/Y POR2X1_847/A PAND2X1_820/a_16_344#
+ PAND2X1_820/m4_208_n4# PAND2X1_820/O PAND2X1_820/a_56_28# PAND2X1_820/CTRL2 PAND2X1_820/CTRL
+ PAND2X1_820/a_76_28# PAND2X1
XPAND2X1_831 VDD GND POR2X1_300/Y POR2X1_273/Y PAND2X1_831/Y PAND2X1_831/a_16_344#
+ PAND2X1_831/m4_208_n4# PAND2X1_831/O PAND2X1_831/a_56_28# PAND2X1_831/CTRL2 PAND2X1_831/CTRL
+ PAND2X1_831/a_76_28# PAND2X1
XPAND2X1_853 VDD GND PAND2X1_853/B PAND2X1_35/Y PAND2X1_857/B PAND2X1_853/a_16_344#
+ PAND2X1_853/m4_208_n4# PAND2X1_853/O PAND2X1_853/a_56_28# PAND2X1_853/CTRL2 PAND2X1_853/CTRL
+ PAND2X1_853/a_76_28# PAND2X1
XPAND2X1_864 VDD GND PAND2X1_864/B PAND2X1_810/A PAND2X1_866/A PAND2X1_864/a_16_344#
+ PAND2X1_864/m4_208_n4# PAND2X1_864/O PAND2X1_864/a_56_28# PAND2X1_864/CTRL2 PAND2X1_864/CTRL
+ PAND2X1_864/a_76_28# PAND2X1
XPAND2X1_842 VDD GND PAND2X1_830/Y POR2X1_184/Y PAND2X1_842/Y PAND2X1_842/a_16_344#
+ PAND2X1_842/m4_208_n4# PAND2X1_842/O PAND2X1_842/a_56_28# PAND2X1_842/CTRL2 PAND2X1_842/CTRL
+ PAND2X1_842/a_76_28# PAND2X1
XPOR2X1_142 VDD GND POR2X1_49/Y POR2X1_65/A POR2X1_142/Y POR2X1_142/m4_208_n4# POR2X1_142/O
+ POR2X1_142/CTRL2 POR2X1_142/a_16_28# POR2X1_142/CTRL POR2X1_142/a_76_344# POR2X1_142/a_56_344#
+ POR2X1
XPOR2X1_120 VDD GND POR2X1_294/B PAND2X1_39/B POR2X1_121/A POR2X1_120/m4_208_n4# POR2X1_120/O
+ POR2X1_120/CTRL2 POR2X1_120/a_16_28# POR2X1_120/CTRL POR2X1_120/a_76_344# POR2X1_120/a_56_344#
+ POR2X1
XPOR2X1_131 VDD GND POR2X1_13/A POR2X1_131/A POR2X1_131/Y POR2X1_131/m4_208_n4# POR2X1_131/O
+ POR2X1_131/CTRL2 POR2X1_131/a_16_28# POR2X1_131/CTRL POR2X1_131/a_76_344# POR2X1_131/a_56_344#
+ POR2X1
XPOR2X1_153 VDD GND INPUT_1 POR2X1_37/Y POR2X1_153/Y POR2X1_153/m4_208_n4# POR2X1_153/O
+ POR2X1_153/CTRL2 POR2X1_153/a_16_28# POR2X1_153/CTRL POR2X1_153/a_76_344# POR2X1_153/a_56_344#
+ POR2X1
XPOR2X1_175 VDD GND POR2X1_175/B POR2X1_175/A POR2X1_853/A POR2X1_175/m4_208_n4# POR2X1_175/O
+ POR2X1_175/CTRL2 POR2X1_175/a_16_28# POR2X1_175/CTRL POR2X1_175/a_76_344# POR2X1_175/a_56_344#
+ POR2X1
XPOR2X1_164 VDD GND POR2X1_20/B POR2X1_376/B POR2X1_164/Y POR2X1_164/m4_208_n4# POR2X1_164/O
+ POR2X1_164/CTRL2 POR2X1_164/a_16_28# POR2X1_164/CTRL POR2X1_164/a_76_344# POR2X1_164/a_56_344#
+ POR2X1
XPOR2X1_186 VDD GND POR2X1_186/B POR2X1_188/A POR2X1_186/Y POR2X1_186/m4_208_n4# POR2X1_186/O
+ POR2X1_186/CTRL2 POR2X1_186/a_16_28# POR2X1_186/CTRL POR2X1_186/a_76_344# POR2X1_186/a_56_344#
+ POR2X1
XPOR2X1_197 VDD GND PAND2X1_52/Y PAND2X1_56/Y POR2X1_197/Y POR2X1_197/m4_208_n4# POR2X1_197/O
+ POR2X1_197/CTRL2 POR2X1_197/a_16_28# POR2X1_197/CTRL POR2X1_197/a_76_344# POR2X1_197/a_56_344#
+ POR2X1
XPAND2X1_127 VDD GND POR2X1_532/A POR2X1_66/B POR2X1_128/A PAND2X1_127/a_16_344# PAND2X1_127/m4_208_n4#
+ PAND2X1_127/O PAND2X1_127/a_56_28# PAND2X1_127/CTRL2 PAND2X1_127/CTRL PAND2X1_127/a_76_28#
+ PAND2X1
XPAND2X1_116 VDD GND PAND2X1_115/Y PAND2X1_114/Y PAND2X1_216/B PAND2X1_116/a_16_344#
+ PAND2X1_116/m4_208_n4# PAND2X1_116/O PAND2X1_116/a_56_28# PAND2X1_116/CTRL2 PAND2X1_116/CTRL
+ PAND2X1_116/a_76_28# PAND2X1
XPAND2X1_105 VDD GND POR2X1_411/B POR2X1_77/Y POR2X1_251/A PAND2X1_105/a_16_344# PAND2X1_105/m4_208_n4#
+ PAND2X1_105/O PAND2X1_105/a_56_28# PAND2X1_105/CTRL2 PAND2X1_105/CTRL PAND2X1_105/a_76_28#
+ PAND2X1
XPAND2X1_138 VDD GND POR2X1_136/Y POR2X1_135/Y PAND2X1_139/B PAND2X1_138/a_16_344#
+ PAND2X1_138/m4_208_n4# PAND2X1_138/O PAND2X1_138/a_56_28# PAND2X1_138/CTRL2 PAND2X1_138/CTRL
+ PAND2X1_138/a_76_28# PAND2X1
XPAND2X1_149 VDD GND PAND2X1_148/Y PAND2X1_149/A PAND2X1_209/A PAND2X1_149/a_16_344#
+ PAND2X1_149/m4_208_n4# PAND2X1_149/O PAND2X1_149/a_56_28# PAND2X1_149/CTRL2 PAND2X1_149/CTRL
+ PAND2X1_149/a_76_28# PAND2X1
XPOR2X1_60 VDD GND POR2X1_38/Y POR2X1_60/A POR2X1_60/Y POR2X1_60/m4_208_n4# POR2X1_60/O
+ POR2X1_60/CTRL2 POR2X1_60/a_16_28# POR2X1_60/CTRL POR2X1_60/a_76_344# POR2X1_60/a_56_344#
+ POR2X1
XPOR2X1_71 VDD GND POR2X1_5/Y POR2X1_62/Y POR2X1_71/Y POR2X1_71/m4_208_n4# POR2X1_71/O
+ POR2X1_71/CTRL2 POR2X1_71/a_16_28# POR2X1_71/CTRL POR2X1_71/a_76_344# POR2X1_71/a_56_344#
+ POR2X1
XPOR2X1_82 VDD GND POR2X1_14/Y POR2X1_29/A POR2X1_83/A POR2X1_82/m4_208_n4# POR2X1_82/O
+ POR2X1_82/CTRL2 POR2X1_82/a_16_28# POR2X1_82/CTRL POR2X1_82/a_76_344# POR2X1_82/a_56_344#
+ POR2X1
XPOR2X1_93 VDD GND POR2X1_83/B POR2X1_93/A POR2X1_93/Y POR2X1_93/m4_208_n4# POR2X1_93/O
+ POR2X1_93/CTRL2 POR2X1_93/a_16_28# POR2X1_93/CTRL POR2X1_93/a_76_344# POR2X1_93/a_56_344#
+ POR2X1
XPAND2X1_683 VDD GND PAND2X1_58/A POR2X1_78/B POR2X1_686/B PAND2X1_683/a_16_344# PAND2X1_683/m4_208_n4#
+ PAND2X1_683/O PAND2X1_683/a_56_28# PAND2X1_683/CTRL2 PAND2X1_683/CTRL PAND2X1_683/a_76_28#
+ PAND2X1
XPAND2X1_661 VDD GND PAND2X1_661/B PAND2X1_653/Y PAND2X1_661/Y PAND2X1_661/a_16_344#
+ PAND2X1_661/m4_208_n4# PAND2X1_661/O PAND2X1_661/a_56_28# PAND2X1_661/CTRL2 PAND2X1_661/CTRL
+ PAND2X1_661/a_76_28# PAND2X1
XPAND2X1_650 VDD GND PAND2X1_641/Y PAND2X1_650/A PAND2X1_654/A PAND2X1_650/a_16_344#
+ PAND2X1_650/m4_208_n4# PAND2X1_650/O PAND2X1_650/a_56_28# PAND2X1_650/CTRL2 PAND2X1_650/CTRL
+ PAND2X1_650/a_76_28# PAND2X1
XPAND2X1_672 VDD GND PAND2X1_671/Y POR2X1_260/A POR2X1_673/A PAND2X1_672/a_16_344#
+ PAND2X1_672/m4_208_n4# PAND2X1_672/O PAND2X1_672/a_56_28# PAND2X1_672/CTRL2 PAND2X1_672/CTRL
+ PAND2X1_672/a_76_28# PAND2X1
XPAND2X1_694 VDD GND PAND2X1_425/Y POR2X1_614/A POR2X1_707/B PAND2X1_694/a_16_344#
+ PAND2X1_694/m4_208_n4# PAND2X1_694/O PAND2X1_694/a_56_28# PAND2X1_694/CTRL2 PAND2X1_694/CTRL
+ PAND2X1_694/a_76_28# PAND2X1
XPAND2X1_4 VDD GND D_INPUT_1 INPUT_0 PAND2X1_6/A PAND2X1_4/a_16_344# PAND2X1_4/m4_208_n4#
+ PAND2X1_4/O PAND2X1_4/a_56_28# PAND2X1_4/CTRL2 PAND2X1_4/CTRL PAND2X1_4/a_76_28#
+ PAND2X1
XPAND2X1_491 VDD GND POR2X1_590/A PAND2X1_32/B POR2X1_493/B PAND2X1_491/a_16_344#
+ PAND2X1_491/m4_208_n4# PAND2X1_491/O PAND2X1_491/a_56_28# PAND2X1_491/CTRL2 PAND2X1_491/CTRL
+ PAND2X1_491/a_76_28# PAND2X1
XPAND2X1_480 VDD GND PAND2X1_480/B PAND2X1_478/Y GATE_479 PAND2X1_480/a_16_344# PAND2X1_776/m4_208_n4#
+ PAND2X1_480/O PAND2X1_480/a_56_28# PAND2X1_480/CTRL2 PAND2X1_480/CTRL PAND2X1_480/a_76_28#
+ PAND2X1
XPOR2X1_708 VDD GND POR2X1_708/B POR2X1_779/A POR2X1_712/A POR2X1_708/m4_208_n4# POR2X1_708/O
+ POR2X1_708/CTRL2 POR2X1_708/a_16_28# POR2X1_708/CTRL POR2X1_708/a_76_344# POR2X1_708/a_56_344#
+ POR2X1
XPOR2X1_719 VDD GND POR2X1_719/B POR2X1_719/A POR2X1_722/A POR2X1_719/m4_208_n4# POR2X1_719/O
+ POR2X1_719/CTRL2 POR2X1_719/a_16_28# POR2X1_719/CTRL POR2X1_719/a_76_344# POR2X1_719/a_56_344#
+ POR2X1
XPOR2X1_516 VDD GND POR2X1_516/B POR2X1_516/A POR2X1_516/Y POR2X1_516/m4_208_n4# POR2X1_516/O
+ POR2X1_516/CTRL2 POR2X1_516/a_16_28# POR2X1_516/CTRL POR2X1_516/a_76_344# POR2X1_516/a_56_344#
+ POR2X1
XPOR2X1_505 VDD GND POR2X1_20/B POR2X1_23/Y POR2X1_505/Y POR2X1_505/m4_208_n4# POR2X1_505/O
+ POR2X1_505/CTRL2 POR2X1_505/a_16_28# POR2X1_505/CTRL POR2X1_505/a_76_344# POR2X1_505/a_56_344#
+ POR2X1
XPOR2X1_549 VDD GND POR2X1_549/B POR2X1_549/A POR2X1_565/B POR2X1_549/m4_208_n4# POR2X1_549/O
+ POR2X1_549/CTRL2 POR2X1_549/a_16_28# POR2X1_549/CTRL POR2X1_549/a_76_344# POR2X1_549/a_56_344#
+ POR2X1
XPOR2X1_538 VDD GND POR2X1_193/A POR2X1_538/A POR2X1_539/A POR2X1_538/m4_208_n4# POR2X1_538/O
+ POR2X1_538/CTRL2 POR2X1_538/a_16_28# POR2X1_538/CTRL POR2X1_538/a_76_344# POR2X1_538/a_56_344#
+ POR2X1
XPOR2X1_527 VDD GND POR2X1_65/A POR2X1_110/Y POR2X1_527/Y POR2X1_527/m4_208_n4# POR2X1_527/O
+ POR2X1_527/CTRL2 POR2X1_527/a_16_28# POR2X1_527/CTRL POR2X1_527/a_76_344# POR2X1_527/a_56_344#
+ POR2X1
XPOR2X1_335 VDD GND POR2X1_335/B POR2X1_335/A POR2X1_335/Y POR2X1_335/m4_208_n4# POR2X1_335/O
+ POR2X1_335/CTRL2 POR2X1_335/a_16_28# POR2X1_335/CTRL POR2X1_335/a_76_344# POR2X1_335/a_56_344#
+ POR2X1
XPOR2X1_313 VDD GND POR2X1_72/B POR2X1_90/Y POR2X1_313/Y POR2X1_313/m4_208_n4# POR2X1_313/O
+ POR2X1_313/CTRL2 POR2X1_313/a_16_28# POR2X1_313/CTRL POR2X1_313/a_76_344# POR2X1_313/a_56_344#
+ POR2X1
XPOR2X1_324 VDD GND POR2X1_324/B POR2X1_324/A POR2X1_324/Y POR2X1_324/m4_208_n4# POR2X1_324/O
+ POR2X1_324/CTRL2 POR2X1_324/a_16_28# POR2X1_324/CTRL POR2X1_324/a_76_344# POR2X1_324/a_56_344#
+ POR2X1
XPOR2X1_302 VDD GND POR2X1_302/B POR2X1_302/A POR2X1_302/Y POR2X1_302/m4_208_n4# POR2X1_302/O
+ POR2X1_302/CTRL2 POR2X1_302/a_16_28# POR2X1_302/CTRL POR2X1_302/a_76_344# POR2X1_302/a_56_344#
+ POR2X1
XPOR2X1_346 VDD GND POR2X1_346/B POR2X1_346/A POR2X1_347/A POR2X1_346/m4_208_n4# POR2X1_346/O
+ POR2X1_346/CTRL2 POR2X1_346/a_16_28# POR2X1_346/CTRL POR2X1_346/a_76_344# POR2X1_346/a_56_344#
+ POR2X1
XPOR2X1_357 VDD GND POR2X1_357/B POR2X1_353/Y POR2X1_357/Y POR2X1_357/m4_208_n4# POR2X1_357/O
+ POR2X1_357/CTRL2 POR2X1_357/a_16_28# POR2X1_357/CTRL POR2X1_357/a_76_344# POR2X1_357/a_56_344#
+ POR2X1
XPOR2X1_368 VDD GND POR2X1_7/A POR2X1_271/A POR2X1_368/Y POR2X1_368/m4_208_n4# POR2X1_368/O
+ POR2X1_368/CTRL2 POR2X1_368/a_16_28# POR2X1_368/CTRL POR2X1_368/a_76_344# POR2X1_368/a_56_344#
+ POR2X1
XPOR2X1_379 VDD GND POR2X1_260/B POR2X1_66/A POR2X1_379/Y POR2X1_379/m4_208_n4# POR2X1_379/O
+ POR2X1_379/CTRL2 POR2X1_379/a_16_28# POR2X1_379/CTRL POR2X1_379/a_76_344# POR2X1_379/a_56_344#
+ POR2X1
XPAND2X1_309 VDD GND POR2X1_814/A PAND2X1_58/A POR2X1_335/B PAND2X1_309/a_16_344#
+ PAND2X1_309/m4_208_n4# PAND2X1_309/O PAND2X1_309/a_56_28# PAND2X1_309/CTRL2 PAND2X1_309/CTRL
+ PAND2X1_309/a_76_28# PAND2X1
XPAND2X1_810 VDD GND PAND2X1_810/B PAND2X1_810/A PAND2X1_812/A PAND2X1_810/a_16_344#
+ PAND2X1_810/m4_208_n4# PAND2X1_810/O PAND2X1_810/a_56_28# PAND2X1_810/CTRL2 PAND2X1_810/CTRL
+ PAND2X1_810/a_76_28# PAND2X1
XPAND2X1_832 VDD GND POR2X1_433/Y POR2X1_423/Y PAND2X1_841/B PAND2X1_832/a_16_344#
+ PAND2X1_832/m4_208_n4# PAND2X1_832/O PAND2X1_832/a_56_28# PAND2X1_832/CTRL2 PAND2X1_832/CTRL
+ PAND2X1_832/a_76_28# PAND2X1
XPAND2X1_821 VDD GND PAND2X1_72/A POR2X1_294/B POR2X1_835/B PAND2X1_821/a_16_344#
+ PAND2X1_821/m4_208_n4# PAND2X1_821/O PAND2X1_821/a_56_28# PAND2X1_821/CTRL2 PAND2X1_821/CTRL
+ PAND2X1_821/a_76_28# PAND2X1
XPAND2X1_865 VDD GND PAND2X1_862/Y PAND2X1_865/A PAND2X1_865/Y PAND2X1_865/a_16_344#
+ PAND2X1_865/m4_208_n4# PAND2X1_865/O PAND2X1_865/a_56_28# PAND2X1_865/CTRL2 PAND2X1_865/CTRL
+ PAND2X1_865/a_76_28# PAND2X1
XPAND2X1_843 VDD GND POR2X1_278/Y POR2X1_251/Y PAND2X1_843/Y PAND2X1_843/a_16_344#
+ PAND2X1_843/m4_208_n4# PAND2X1_843/O PAND2X1_843/a_56_28# PAND2X1_843/CTRL2 PAND2X1_843/CTRL
+ PAND2X1_843/a_76_28# PAND2X1
XPAND2X1_854 VDD GND PAND2X1_535/Y PAND2X1_854/A PAND2X1_854/Y PAND2X1_854/a_16_344#
+ PAND2X1_854/m4_208_n4# PAND2X1_854/O PAND2X1_854/a_56_28# PAND2X1_854/CTRL2 PAND2X1_854/CTRL
+ PAND2X1_854/a_76_28# PAND2X1
XPOR2X1_110 VDD GND INPUT_0 POR2X1_14/Y POR2X1_110/Y POR2X1_110/m4_208_n4# POR2X1_110/O
+ POR2X1_110/CTRL2 POR2X1_110/a_16_28# POR2X1_110/CTRL POR2X1_110/a_76_344# POR2X1_110/a_56_344#
+ POR2X1
XPOR2X1_143 VDD GND INPUT_1 POR2X1_8/Y POR2X1_376/B POR2X1_143/m4_208_n4# POR2X1_143/O
+ POR2X1_143/CTRL2 POR2X1_143/a_16_28# POR2X1_143/CTRL POR2X1_143/a_76_344# POR2X1_143/a_56_344#
+ POR2X1
XPOR2X1_121 VDD GND POR2X1_121/B POR2X1_121/A POR2X1_121/Y POR2X1_121/m4_208_n4# POR2X1_121/O
+ POR2X1_121/CTRL2 POR2X1_121/a_16_28# POR2X1_121/CTRL POR2X1_121/a_76_344# POR2X1_121/a_56_344#
+ POR2X1
XPOR2X1_132 VDD GND POR2X1_90/Y POR2X1_96/A POR2X1_132/Y POR2X1_132/m4_208_n4# POR2X1_132/O
+ POR2X1_132/CTRL2 POR2X1_132/a_16_28# POR2X1_132/CTRL POR2X1_132/a_76_344# POR2X1_132/a_56_344#
+ POR2X1
XPOR2X1_154 VDD GND PAND2X1_6/Y PAND2X1_39/B POR2X1_156/B POR2X1_154/m4_208_n4# POR2X1_154/O