* SPICE3 file created from singleRail.ext - technology: scmos
*
* drain/source ordering enforced by hand
*

.subckt NAND2X1_LOC a_36_24# Y VSS VDD A B
X0 a_36_24# A VSS VSS NMOS_MAGIC ad=0.6p pd=4.6u as=1p ps=5u w=2u l=0.2u
X1 Y B a_36_24# VSS NMOS_MAGIC ad=1p pd=5u as=0p ps=0u w=2u l=0.2u
X2 Y B VDD VDD PMOS_MAGIC ad=2p pd=10u as=1.2p ps=5.2u w=2u l=0.2u
X3 Y A VDD VDD PMOS_MAGIC ad=0p pd=0u as=0p ps=0u w=2u l=0.2u
C0 B Y 0.10fF
C1 Y a_36_24# 0.01fF
C2 VDD A 0.20fF
C3 VDD B 0.27fF
C4 A B 0.22fF
C5 VDD Y 0.57fF
C6 A Y 0.08fF
C7 Y VSS 0.20fF
C8 B VSS 0.19fF
C9 A VSS 0.30fF
C10 VDD VSS 1.73fF
.ends

.subckt INVX1_LOC Y VSS VDD A
X0 Y A VSS VSS NMOS_MAGIC ad=0.5p pd=3u as=0.5p ps=3u w=1u l=0.2u
X1 Y A VDD VDD PMOS_MAGIC ad=1p pd=5u as=1p ps=5u w=2u l=0.2u
C0 VDD A 0.20fF
C1 VDD Y 0.39fF
C2 A Y 0.08fF
C3 Y VSS 0.07fF
C4 A VSS 0.37fF
C5 VDD VSS 1.52fF
.ends 

.subckt AES_SBOX INPUT_0 INPUT_1 INPUT_2 INPUT_3 INPUT_4 INPUT_5 INPUT_6 INPUT_7
+ GATE_222 GATE_366 GATE_479 GATE_579 GATE_662 GATE_741 GATE_811 GATE_865 VDD VSS

XNAND2X1_LOC_580 NAND2X1_LOC_580/a_36_24# GATE_579 VSS VDD INVX1_LOC_452/Y INVX1_LOC_453/Y
+ NAND2X1_LOC
XNAND2X1_LOC_591 NAND2X1_LOC_591/a_36_24# NAND2X1_LOC_591/Y VSS VDD INVX1_LOC_69/Y
+ NAND2X1_LOC_591/B NAND2X1_LOC
XINVX1_LOC_402 INVX1_LOC_402/Y VSS VDD INVX1_LOC_402/A INVX1_LOC
XINVX1_LOC_413 INVX1_LOC_413/Y VSS VDD INVX1_LOC_413/A INVX1_LOC
XINVX1_LOC_468 INVX1_LOC_468/Y VSS VDD INVX1_LOC_468/A INVX1_LOC
XINVX1_LOC_446 INVX1_LOC_446/Y VSS VDD INVX1_LOC_446/A INVX1_LOC
XINVX1_LOC_424 INVX1_LOC_424/Y VSS VDD INVX1_LOC_424/A INVX1_LOC
XINVX1_LOC_457 INVX1_LOC_457/Y VSS VDD INVX1_LOC_47/Y INVX1_LOC
XINVX1_LOC_435 INVX1_LOC_435/Y VSS VDD INVX1_LOC_435/A INVX1_LOC
XINVX1_LOC_479 INVX1_LOC_479/Y VSS VDD INVX1_LOC_479/A INVX1_LOC
XINVX1_LOC_221 INVX1_LOC_221/Y VSS VDD INVX1_LOC_20/Y INVX1_LOC
XINVX1_LOC_232 INVX1_LOC_232/Y VSS VDD INVX1_LOC_26/Y INVX1_LOC
XINVX1_LOC_243 INVX1_LOC_245/A VSS VDD INVX1_LOC_243/A INVX1_LOC
XINVX1_LOC_210 INVX1_LOC_210/Y VSS VDD INVX1_LOC_210/A INVX1_LOC
XNAND2X1_LOC_10 NAND2X1_LOC_10/a_36_24# INVX1_LOC_17/A VSS VDD INVX1_LOC_12/Y INVX1_LOC_66/A
+ NAND2X1_LOC
XNAND2X1_LOC_43 NAND2X1_LOC_43/a_36_24# NAND2X1_LOC_43/Y VSS VDD INVX1_LOC_31/Y INVX1_LOC_49/Y
+ NAND2X1_LOC
XNAND2X1_LOC_21 NAND2X1_LOC_21/a_36_24# INVX1_LOC_29/A VSS VDD INPUT_4 INVX1_LOC_30/Y
+ NAND2X1_LOC
XNAND2X1_LOC_32 NAND2X1_LOC_32/a_36_24# NAND2X1_LOC_32/Y VSS VDD INVX1_LOC_87/A INVX1_LOC_41/Y
+ NAND2X1_LOC
XINVX1_LOC_276 INVX1_LOC_276/Y VSS VDD INVX1_LOC_276/A INVX1_LOC
XINVX1_LOC_265 INVX1_LOC_265/Y VSS VDD INVX1_LOC_74/Y INVX1_LOC
XINVX1_LOC_287 INVX1_LOC_287/Y VSS VDD INVX1_LOC_287/A INVX1_LOC
XINVX1_LOC_298 INVX1_LOC_298/Y VSS VDD INVX1_LOC_298/A INVX1_LOC
XINVX1_LOC_254 INVX1_LOC_254/Y VSS VDD INVX1_LOC_254/A INVX1_LOC
XNAND2X1_LOC_54 NAND2X1_LOC_54/a_36_24# INVX1_LOC_61/A VSS VDD INPUT_0 INPUT_1
+ NAND2X1_LOC
XNAND2X1_LOC_98 NAND2X1_LOC_98/a_36_24# INVX1_LOC_95/A VSS VDD NAND2X1_LOC_93/Y NAND2X1_LOC_98/B
+ NAND2X1_LOC
XNAND2X1_LOC_76 NAND2X1_LOC_76/a_36_24# INVX1_LOC_77/A VSS VDD NAND2X1_LOC_76/A NAND2X1_LOC_76/B
+ NAND2X1_LOC
XNAND2X1_LOC_65 NAND2X1_LOC_65/a_36_24# NAND2X1_LOC_65/Y VSS VDD INVX1_LOC_68/Y INVX1_LOC_69/Y
+ NAND2X1_LOC
XNAND2X1_LOC_87 NAND2X1_LOC_87/a_36_24# NAND2X1_LOC_88/B VSS VDD INVX1_LOC_87/Y INVX1_LOC_88/Y
+ NAND2X1_LOC
XNAND2X1_LOC_409 NAND2X1_LOC_409/a_36_24# NAND2X1_LOC_409/Y VSS VDD INVX1_LOC_335/Y
+ INVX1_LOC_333/Y NAND2X1_LOC
XNAND2X1_LOC_217 NAND2X1_LOC_217/a_36_24# INVX1_LOC_193/A VSS VDD INVX1_LOC_116/Y
+ INVX1_LOC_128/Y NAND2X1_LOC
XNAND2X1_LOC_228 NAND2X1_LOC_228/a_36_24# INVX1_LOC_202/A VSS VDD NAND2X1_LOC_7/Y
+ NAND2X1_LOC_52/Y NAND2X1_LOC
XNAND2X1_LOC_239 NAND2X1_LOC_239/a_36_24# NAND2X1_LOC_242/A VSS VDD INVX1_LOC_58/Y
+ INVX1_LOC_99/Y NAND2X1_LOC
XNAND2X1_LOC_206 NAND2X1_LOC_206/a_36_24# INVX1_LOC_182/A VSS VDD INVX1_LOC_177/Y
+ INVX1_LOC_178/Y NAND2X1_LOC
XNAND2X1_LOC_740 NAND2X1_LOC_740/a_36_24# INVX1_LOC_583/A VSS VDD INVX1_LOC_581/Y
+ INVX1_LOC_582/Y NAND2X1_LOC
XNAND2X1_LOC_784 NAND2X1_LOC_784/a_36_24# INVX1_LOC_614/A VSS VDD INVX1_LOC_605/Y
+ INVX1_LOC_607/Y NAND2X1_LOC
XNAND2X1_LOC_795 NAND2X1_LOC_795/a_36_24# INVX1_LOC_625/A VSS VDD INVX1_LOC_615/Y
+ INVX1_LOC_616/Y NAND2X1_LOC
XNAND2X1_LOC_762 NAND2X1_LOC_762/a_36_24# INVX1_LOC_595/A VSS VDD INPUT_6 INVX1_LOC_18/Y
+ NAND2X1_LOC
XNAND2X1_LOC_773 NAND2X1_LOC_773/a_36_24# INVX1_LOC_601/A VSS VDD NAND2X1_LOC_773/A
+ INVX1_LOC_600/Y NAND2X1_LOC
XNAND2X1_LOC_751 NAND2X1_LOC_751/a_36_24# NAND2X1_LOC_789/B VSS VDD INVX1_LOC_6/Y
+ NAND2X1_LOC_750/Y NAND2X1_LOC
XINVX1_LOC_6 INVX1_LOC_6/Y VSS VDD INVX1_LOC_6/A INVX1_LOC
XINVX1_LOC_606 INVX1_LOC_606/Y VSS VDD INVX1_LOC_212/Y INVX1_LOC
XINVX1_LOC_617 INVX1_LOC_617/Y VSS VDD INVX1_LOC_617/A INVX1_LOC
XINVX1_LOC_639 INVX1_LOC_639/Y VSS VDD INVX1_LOC_639/A INVX1_LOC
XINVX1_LOC_628 INVX1_LOC_628/Y VSS VDD INVX1_LOC_628/A INVX1_LOC
XNAND2X1_LOC_570 NAND2X1_LOC_570/a_36_24# INVX1_LOC_444/A VSS VDD INVX1_LOC_436/Y
+ INVX1_LOC_437/Y NAND2X1_LOC
XNAND2X1_LOC_592 NAND2X1_LOC_592/a_36_24# INVX1_LOC_459/A VSS VDD NAND2X1_LOC_832/A
+ NAND2X1_LOC_592/B NAND2X1_LOC
XNAND2X1_LOC_581 NAND2X1_LOC_581/a_36_24# INVX1_LOC_454/A VSS VDD INPUT_6 INVX1_LOC_3/Y
+ NAND2X1_LOC
XINVX1_LOC_403 INVX1_LOC_403/Y VSS VDD INPUT_0 INVX1_LOC
XINVX1_LOC_414 INVX1_LOC_414/Y VSS VDD INVX1_LOC_414/A INVX1_LOC
XINVX1_LOC_425 INVX1_LOC_425/Y VSS VDD INVX1_LOC_425/A INVX1_LOC
XINVX1_LOC_436 INVX1_LOC_436/Y VSS VDD INVX1_LOC_436/A INVX1_LOC
XINVX1_LOC_469 INVX1_LOC_469/Y VSS VDD INVX1_LOC_469/A INVX1_LOC
XINVX1_LOC_447 INVX1_LOC_447/Y VSS VDD INVX1_LOC_447/A INVX1_LOC
XINVX1_LOC_458 INVX1_LOC_458/Y VSS VDD INVX1_LOC_99/Y INVX1_LOC
XINVX1_LOC_277 INVX1_LOC_277/Y VSS VDD INVX1_LOC_277/A INVX1_LOC
XINVX1_LOC_222 INVX1_LOC_222/Y VSS VDD INVX1_LOC_145/Y INVX1_LOC
XINVX1_LOC_244 INVX1_LOC_244/Y VSS VDD INVX1_LOC_17/Y INVX1_LOC
XINVX1_LOC_200 INVX1_LOC_200/Y VSS VDD INPUT_1 INVX1_LOC
XINVX1_LOC_255 INVX1_LOC_255/Y VSS VDD INVX1_LOC_255/A INVX1_LOC
XINVX1_LOC_233 INVX1_LOC_233/Y VSS VDD INVX1_LOC_45/Y INVX1_LOC
XINVX1_LOC_266 INVX1_LOC_266/Y VSS VDD INVX1_LOC_266/A INVX1_LOC
XINVX1_LOC_211 INVX1_LOC_211/Y VSS VDD INVX1_LOC_211/A INVX1_LOC
XNAND2X1_LOC_77 NAND2X1_LOC_77/a_36_24# INVX1_LOC_78/A VSS VDD INVX1_LOC_21/Y INVX1_LOC_92/A
+ NAND2X1_LOC
XNAND2X1_LOC_55 NAND2X1_LOC_55/a_36_24# INVX1_LOC_62/A VSS VDD INVX1_LOC_9/Y INVX1_LOC_92/A
+ NAND2X1_LOC
XNAND2X1_LOC_66 NAND2X1_LOC_66/a_36_24# NAND2X1_LOC_66/Y VSS VDD INVX1_LOC_70/Y INVX1_LOC_71/Y
+ NAND2X1_LOC
XNAND2X1_LOC_11 NAND2X1_LOC_11/a_36_24# INVX1_LOC_18/A VSS VDD INVX1_LOC_19/Y INPUT_5
+ NAND2X1_LOC
XNAND2X1_LOC_44 NAND2X1_LOC_44/a_36_24# INVX1_LOC_50/A VSS VDD INVX1_LOC_25/Y INVX1_LOC_40/Y
+ NAND2X1_LOC
XNAND2X1_LOC_22 NAND2X1_LOC_22/a_36_24# INVX1_LOC_31/A VSS VDD INVX1_LOC_1/Y INVX1_LOC_29/Y
+ NAND2X1_LOC
XNAND2X1_LOC_33 NAND2X1_LOC_33/a_36_24# INVX1_LOC_42/A VSS VDD NAND2X1_LOC_20/Y NAND2X1_LOC_24/Y
+ NAND2X1_LOC
XINVX1_LOC_288 INVX1_LOC_288/Y VSS VDD INVX1_LOC_288/A INVX1_LOC
XINVX1_LOC_299 INVX1_LOC_299/Y VSS VDD INVX1_LOC_299/A INVX1_LOC
XNAND2X1_LOC_99 NAND2X1_LOC_99/a_36_24# INVX1_LOC_96/A VSS VDD INVX1_LOC_94/Y INVX1_LOC_95/Y
+ NAND2X1_LOC
XNAND2X1_LOC_88 NAND2X1_LOC_88/a_36_24# NAND2X1_LOC_88/Y VSS VDD INVX1_LOC_6/Y NAND2X1_LOC_88/B
+ NAND2X1_LOC
XNAND2X1_LOC_218 NAND2X1_LOC_218/a_36_24# INVX1_LOC_194/A VSS VDD INVX1_LOC_192/Y
+ INVX1_LOC_193/Y NAND2X1_LOC
XNAND2X1_LOC_229 NAND2X1_LOC_229/a_36_24# NAND2X1_LOC_231/A VSS VDD INVX1_LOC_20/Y
+ INVX1_LOC_32/Y NAND2X1_LOC
XNAND2X1_LOC_207 NAND2X1_LOC_207/a_36_24# INVX1_LOC_183/A VSS VDD INVX1_LOC_175/Y
+ INVX1_LOC_176/Y NAND2X1_LOC
XNAND2X1_LOC_796 NAND2X1_LOC_796/a_36_24# INVX1_LOC_626/A VSS VDD INVX1_LOC_613/Y
+ INVX1_LOC_614/Y NAND2X1_LOC
XNAND2X1_LOC_730 NAND2X1_LOC_730/a_36_24# INVX1_LOC_573/A VSS VDD INVX1_LOC_571/Y
+ INVX1_LOC_572/Y NAND2X1_LOC
XNAND2X1_LOC_741 NAND2X1_LOC_741/a_36_24# INVX1_LOC_584/A VSS VDD INVX1_LOC_579/Y
+ INVX1_LOC_580/Y NAND2X1_LOC
XNAND2X1_LOC_752 NAND2X1_LOC_752/a_36_24# INVX1_LOC_587/A VSS VDD INPUT_5 INVX1_LOC_55/Y
+ NAND2X1_LOC
XNAND2X1_LOC_774 NAND2X1_LOC_774/a_36_24# INVX1_LOC_602/A VSS VDD INVX1_LOC_599/Y
+ INVX1_LOC_601/Y NAND2X1_LOC
XNAND2X1_LOC_785 NAND2X1_LOC_785/a_36_24# INVX1_LOC_615/A VSS VDD INVX1_LOC_603/Y
+ INVX1_LOC_604/Y NAND2X1_LOC
XNAND2X1_LOC_763 NAND2X1_LOC_763/a_36_24# NAND2X1_LOC_763/Y VSS VDD INVX1_LOC_51/Y
+ INVX1_LOC_595/Y NAND2X1_LOC
XINVX1_LOC_607 INVX1_LOC_607/Y VSS VDD INVX1_LOC_607/A INVX1_LOC
XINVX1_LOC_618 INVX1_LOC_618/Y VSS VDD INVX1_LOC_618/A INVX1_LOC
XINVX1_LOC_7 INVX1_LOC_7/Y VSS VDD INVX1_LOC_7/A INVX1_LOC
XINVX1_LOC_629 INVX1_LOC_629/Y VSS VDD INVX1_LOC_629/A INVX1_LOC
XNAND2X1_LOC_593 NAND2X1_LOC_593/a_36_24# INVX1_LOC_460/A VSS VDD NAND2X1_LOC_591/Y
+ INVX1_LOC_459/Y NAND2X1_LOC
XNAND2X1_LOC_571 NAND2X1_LOC_571/a_36_24# INVX1_LOC_445/A VSS VDD INVX1_LOC_434/Y
+ INVX1_LOC_435/Y NAND2X1_LOC
XNAND2X1_LOC_582 NAND2X1_LOC_582/a_36_24# NAND2X1_LOC_635/B VSS VDD INVX1_LOC_479/A
+ INVX1_LOC_454/Y NAND2X1_LOC
XNAND2X1_LOC_560 NAND2X1_LOC_560/a_36_24# INVX1_LOC_434/A VSS VDD INVX1_LOC_406/Y
+ INVX1_LOC_433/Y NAND2X1_LOC
XINVX1_LOC_437 INVX1_LOC_437/Y VSS VDD INVX1_LOC_437/A INVX1_LOC
XINVX1_LOC_459 INVX1_LOC_459/Y VSS VDD INVX1_LOC_459/A INVX1_LOC
XINVX1_LOC_448 INVX1_LOC_448/Y VSS VDD INVX1_LOC_448/A INVX1_LOC
XINVX1_LOC_415 INVX1_LOC_415/Y VSS VDD INVX1_LOC_218/Y INVX1_LOC
XINVX1_LOC_426 INVX1_LOC_426/Y VSS VDD INVX1_LOC_426/A INVX1_LOC
XINVX1_LOC_404 INVX1_LOC_404/Y VSS VDD INVX1_LOC_224/Y INVX1_LOC
XNAND2X1_LOC_390 NAND2X1_LOC_390/a_36_24# INVX1_LOC_319/A VSS VDD INVX1_LOC_317/Y
+ INVX1_LOC_318/Y NAND2X1_LOC
XINVX1_LOC_245 INVX1_LOC_245/Y VSS VDD INVX1_LOC_245/A INVX1_LOC
XINVX1_LOC_212 INVX1_LOC_212/Y VSS VDD INVX1_LOC_212/A INVX1_LOC
XINVX1_LOC_278 INVX1_LOC_278/Y VSS VDD INVX1_LOC_278/A INVX1_LOC
XINVX1_LOC_256 INVX1_LOC_256/Y VSS VDD INVX1_LOC_256/A INVX1_LOC
XINVX1_LOC_289 INVX1_LOC_289/Y VSS VDD INVX1_LOC_289/A INVX1_LOC
XINVX1_LOC_234 INVX1_LOC_234/Y VSS VDD INPUT_0 INVX1_LOC
XINVX1_LOC_267 INVX1_LOC_267/Y VSS VDD INVX1_LOC_267/A INVX1_LOC
XINVX1_LOC_201 INVX1_LOC_201/Y VSS VDD INVX1_LOC_201/A INVX1_LOC
XINVX1_LOC_223 INVX1_LOC_223/Y VSS VDD INVX1_LOC_223/A INVX1_LOC
XNAND2X1_LOC_45 NAND2X1_LOC_45/a_36_24# NAND2X1_LOC_45/Y VSS VDD INVX1_LOC_32/Y INVX1_LOC_50/Y
+ NAND2X1_LOC
XNAND2X1_LOC_89 NAND2X1_LOC_89/a_36_24# NAND2X1_LOC_97/A VSS VDD INVX1_LOC_63/Y INVX1_LOC_80/A
+ NAND2X1_LOC
XNAND2X1_LOC_56 NAND2X1_LOC_56/a_36_24# NAND2X1_LOC_56/Y VSS VDD INVX1_LOC_59/Y INVX1_LOC_62/Y
+ NAND2X1_LOC
XNAND2X1_LOC_67 NAND2X1_LOC_67/a_36_24# NAND2X1_LOC_67/Y VSS VDD INVX1_LOC_62/Y NAND2X1_LOC_66/Y
+ NAND2X1_LOC
XNAND2X1_LOC_23 NAND2X1_LOC_23/a_36_24# INVX1_LOC_32/A VSS VDD INVX1_LOC_7/Y INVX1_LOC_21/Y
+ NAND2X1_LOC
XNAND2X1_LOC_12 NAND2X1_LOC_12/a_36_24# INVX1_LOC_20/A VSS VDD INVX1_LOC_1/Y INVX1_LOC_18/Y
+ NAND2X1_LOC
XNAND2X1_LOC_78 NAND2X1_LOC_78/a_36_24# NAND2X1_LOC_79/B VSS VDD INVX1_LOC_79/Y INVX1_LOC_80/Y
+ NAND2X1_LOC
XNAND2X1_LOC_34 NAND2X1_LOC_34/a_36_24# INVX1_LOC_43/A VSS VDD NAND2X1_LOC_27/Y NAND2X1_LOC_32/Y
+ NAND2X1_LOC
XNAND2X1_LOC_219 NAND2X1_LOC_219/a_36_24# INVX1_LOC_195/A VSS VDD INVX1_LOC_190/Y
+ INVX1_LOC_191/Y NAND2X1_LOC
XNAND2X1_LOC_208 NAND2X1_LOC_208/a_36_24# INVX1_LOC_184/A VSS VDD INVX1_LOC_44/Y INVX1_LOC_174/Y
+ NAND2X1_LOC
XNAND2X1_LOC_720 NAND2X1_LOC_720/a_36_24# INVX1_LOC_563/A VSS VDD NAND2X1_LOC_720/A
+ NAND2X1_LOC_669/Y NAND2X1_LOC
XNAND2X1_LOC_797 NAND2X1_LOC_797/a_36_24# INVX1_LOC_627/A VSS VDD INVX1_LOC_133/Y
+ INVX1_LOC_612/Y NAND2X1_LOC
XNAND2X1_LOC_731 NAND2X1_LOC_731/a_36_24# INVX1_LOC_574/A VSS VDD INVX1_LOC_569/Y
+ INVX1_LOC_570/Y NAND2X1_LOC
XNAND2X1_LOC_742 NAND2X1_LOC_742/a_36_24# GATE_741 VSS VDD INVX1_LOC_583/Y INVX1_LOC_584/Y
+ NAND2X1_LOC
XNAND2X1_LOC_775 NAND2X1_LOC_775/a_36_24# INVX1_LOC_603/A VSS VDD NAND2X1_LOC_97/B
+ NAND2X1_LOC_775/B NAND2X1_LOC
XNAND2X1_LOC_753 NAND2X1_LOC_753/a_36_24# NAND2X1_LOC_753/Y VSS VDD INVX1_LOC_588/Y
+ INVX1_LOC_587/Y NAND2X1_LOC
XNAND2X1_LOC_764 NAND2X1_LOC_764/a_36_24# NAND2X1_LOC_764/Y VSS VDD INVX1_LOC_48/Y
+ INVX1_LOC_117/Y NAND2X1_LOC
XNAND2X1_LOC_786 NAND2X1_LOC_786/a_36_24# INVX1_LOC_616/A VSS VDD INVX1_LOC_85/Y NAND2X1_LOC_786/B
+ NAND2X1_LOC
XINVX1_LOC_608 INVX1_LOC_608/Y VSS VDD INVX1_LOC_608/A INVX1_LOC
XINVX1_LOC_8 INVX1_LOC_8/Y VSS VDD INPUT_1 INVX1_LOC
XINVX1_LOC_619 INVX1_LOC_619/Y VSS VDD INVX1_LOC_619/A INVX1_LOC
XNAND2X1_LOC_550 NAND2X1_LOC_550/a_36_24# INVX1_LOC_424/A VSS VDD INVX1_LOC_420/Y
+ INVX1_LOC_421/Y NAND2X1_LOC
XNAND2X1_LOC_572 NAND2X1_LOC_572/a_36_24# INVX1_LOC_446/A VSS VDD INVX1_LOC_116/Y
+ INVX1_LOC_230/Y NAND2X1_LOC
XNAND2X1_LOC_561 NAND2X1_LOC_561/a_36_24# INVX1_LOC_435/A VSS VDD INVX1_LOC_431/Y
+ INVX1_LOC_432/Y NAND2X1_LOC
XNAND2X1_LOC_583 NAND2X1_LOC_583/a_36_24# NAND2X1_LOC_636/A VSS VDD INVX1_LOC_41/Y
+ INVX1_LOC_54/Y NAND2X1_LOC
XNAND2X1_LOC_594 NAND2X1_LOC_594/a_36_24# NAND2X1_LOC_594/Y VSS VDD INVX1_LOC_93/Y
+ NAND2X1_LOC_331/A NAND2X1_LOC
XINVX1_LOC_427 INVX1_LOC_427/Y VSS VDD INVX1_LOC_427/A INVX1_LOC
XINVX1_LOC_449 INVX1_LOC_449/Y VSS VDD INVX1_LOC_449/A INVX1_LOC
XINVX1_LOC_416 INVX1_LOC_416/Y VSS VDD INVX1_LOC_416/A INVX1_LOC
XINVX1_LOC_405 INVX1_LOC_405/Y VSS VDD INVX1_LOC_405/A INVX1_LOC
XINVX1_LOC_438 INVX1_LOC_438/Y VSS VDD INVX1_LOC_438/A INVX1_LOC
XNAND2X1_LOC_391 NAND2X1_LOC_391/a_36_24# INVX1_LOC_320/A VSS VDD NAND2X1_LOC_391/A
+ NAND2X1_LOC_391/B NAND2X1_LOC
XNAND2X1_LOC_380 NAND2X1_LOC_380/a_36_24# NAND2X1_LOC_460/A VSS VDD INVX1_LOC_117/Y
+ NAND2X1_LOC_379/Y NAND2X1_LOC
XINVX1_LOC_213 INVX1_LOC_213/Y VSS VDD INVX1_LOC_11/Y INVX1_LOC
XINVX1_LOC_279 INVX1_LOC_279/Y VSS VDD INVX1_LOC_279/A INVX1_LOC
XINVX1_LOC_257 INVX1_LOC_257/Y VSS VDD INVX1_LOC_257/A INVX1_LOC
XINVX1_LOC_235 INVX1_LOC_235/Y VSS VDD INVX1_LOC_235/A INVX1_LOC
XINVX1_LOC_246 INVX1_LOC_246/Y VSS VDD INVX1_LOC_49/Y INVX1_LOC
XINVX1_LOC_268 INVX1_LOC_268/Y VSS VDD INVX1_LOC_268/A INVX1_LOC
XINVX1_LOC_224 INVX1_LOC_224/Y VSS VDD INVX1_LOC_224/A INVX1_LOC
XINVX1_LOC_202 INVX1_LOC_202/Y VSS VDD INVX1_LOC_202/A INVX1_LOC
XNAND2X1_LOC_46 NAND2X1_LOC_46/a_36_24# INVX1_LOC_51/A VSS VDD INVX1_LOC_52/Y INVX1_LOC_21/Y
+ NAND2X1_LOC
XNAND2X1_LOC_13 NAND2X1_LOC_13/a_36_24# NAND2X1_LOC_13/Y VSS VDD INVX1_LOC_17/Y INVX1_LOC_20/Y
+ NAND2X1_LOC
XNAND2X1_LOC_57 NAND2X1_LOC_57/a_36_24# NAND2X1_LOC_57/Y VSS VDD INVX1_LOC_9/Y INVX1_LOC_50/Y
+ NAND2X1_LOC
XNAND2X1_LOC_68 NAND2X1_LOC_68/a_36_24# NAND2X1_LOC_69/B VSS VDD INVX1_LOC_72/Y INVX1_LOC_73/Y
+ NAND2X1_LOC
XNAND2X1_LOC_24 NAND2X1_LOC_24/a_36_24# NAND2X1_LOC_24/Y VSS VDD INVX1_LOC_31/Y INVX1_LOC_32/Y
+ NAND2X1_LOC
XNAND2X1_LOC_79 NAND2X1_LOC_79/a_36_24# NAND2X1_LOC_79/Y VSS VDD INVX1_LOC_26/Y NAND2X1_LOC_79/B
+ NAND2X1_LOC
XNAND2X1_LOC_35 NAND2X1_LOC_35/a_36_24# INVX1_LOC_44/A VSS VDD INVX1_LOC_42/Y INVX1_LOC_43/Y
+ NAND2X1_LOC
XNAND2X1_LOC_209 NAND2X1_LOC_209/a_36_24# INVX1_LOC_185/A VSS VDD INVX1_LOC_133/Y
+ NAND2X1_LOC_152/Y NAND2X1_LOC
XNAND2X1_LOC_710 NAND2X1_LOC_710/a_36_24# INVX1_LOC_553/A VSS VDD NAND2X1_LOC_710/A
+ NAND2X1_LOC_710/B NAND2X1_LOC
XNAND2X1_LOC_743 NAND2X1_LOC_743/a_36_24# NAND2X1_LOC_780/A VSS VDD INVX1_LOC_6/Y
+ INVX1_LOC_137/Y NAND2X1_LOC
XNAND2X1_LOC_732 NAND2X1_LOC_732/a_36_24# INVX1_LOC_575/A VSS VDD INVX1_LOC_567/Y
+ INVX1_LOC_568/Y NAND2X1_LOC
XNAND2X1_LOC_754 NAND2X1_LOC_754/a_36_24# NAND2X1_LOC_790/B VSS VDD INVX1_LOC_45/Y
+ NAND2X1_LOC_615/B NAND2X1_LOC
XNAND2X1_LOC_721 NAND2X1_LOC_721/a_36_24# INVX1_LOC_564/A VSS VDD INVX1_LOC_531/Y
+ INVX1_LOC_563/Y NAND2X1_LOC
XNAND2X1_LOC_798 NAND2X1_LOC_798/a_36_24# INVX1_LOC_628/A VSS VDD INVX1_LOC_255/Y
+ INVX1_LOC_346/Y NAND2X1_LOC
XNAND2X1_LOC_787 NAND2X1_LOC_787/a_36_24# INVX1_LOC_617/A VSS VDD INVX1_LOC_301/Y
+ INVX1_LOC_387/Y NAND2X1_LOC
XNAND2X1_LOC_765 NAND2X1_LOC_765/a_36_24# NAND2X1_LOC_770/A VSS VDD INVX1_LOC_20/Y
+ INVX1_LOC_79/A NAND2X1_LOC
XNAND2X1_LOC_776 NAND2X1_LOC_776/a_36_24# INVX1_LOC_604/A VSS VDD NAND2X1_LOC_164/Y
+ NAND2X1_LOC_241/B NAND2X1_LOC
XINVX1_LOC_9 INVX1_LOC_9/Y VSS VDD INVX1_LOC_9/A INVX1_LOC
XINVX1_LOC_609 INVX1_LOC_609/Y VSS VDD INVX1_LOC_609/A INVX1_LOC
XNAND2X1_LOC_540 NAND2X1_LOC_540/a_36_24# INVX1_LOC_413/A VSS VDD NAND2X1_LOC_181/A
+ NAND2X1_LOC_190/A NAND2X1_LOC
XNAND2X1_LOC_595 NAND2X1_LOC_595/a_36_24# NAND2X1_LOC_595/Y VSS VDD INVX1_LOC_35/Y
+ NAND2X1_LOC_249/Y NAND2X1_LOC
XNAND2X1_LOC_562 NAND2X1_LOC_562/a_36_24# INVX1_LOC_436/A VSS VDD INVX1_LOC_429/Y
+ INVX1_LOC_430/Y NAND2X1_LOC
XNAND2X1_LOC_584 NAND2X1_LOC_584/a_36_24# NAND2X1_LOC_636/B VSS VDD INVX1_LOC_11/Y
+ INVX1_LOC_58/Y NAND2X1_LOC
XNAND2X1_LOC_551 NAND2X1_LOC_551/a_36_24# INVX1_LOC_425/A VSS VDD INVX1_LOC_418/Y
+ INVX1_LOC_419/Y NAND2X1_LOC
XNAND2X1_LOC_573 NAND2X1_LOC_573/a_36_24# INVX1_LOC_447/A VSS VDD INVX1_LOC_328/Y
+ INVX1_LOC_393/Y NAND2X1_LOC
XINVX1_LOC_428 INVX1_LOC_428/Y VSS VDD INVX1_LOC_428/A INVX1_LOC
XINVX1_LOC_406 INVX1_LOC_406/Y VSS VDD INVX1_LOC_406/A INVX1_LOC
XINVX1_LOC_417 INVX1_LOC_417/Y VSS VDD INVX1_LOC_417/A INVX1_LOC
XINVX1_LOC_439 INVX1_LOC_439/Y VSS VDD INVX1_LOC_439/A INVX1_LOC
XNAND2X1_LOC_370 NAND2X1_LOC_370/a_36_24# INVX1_LOC_301/A VSS VDD NAND2X1_LOC_370/A
+ NAND2X1_LOC_543/B NAND2X1_LOC
XNAND2X1_LOC_392 NAND2X1_LOC_392/a_36_24# INVX1_LOC_321/A VSS VDD INVX1_LOC_319/Y
+ INVX1_LOC_320/Y NAND2X1_LOC
XNAND2X1_LOC_381 NAND2X1_LOC_381/a_36_24# INVX1_LOC_312/A VSS VDD INPUT_3 INVX1_LOC_20/Y
+ NAND2X1_LOC
XINVX1_LOC_214 INVX1_LOC_214/Y VSS VDD INVX1_LOC_17/Y INVX1_LOC
XINVX1_LOC_225 INVX1_LOC_225/Y VSS VDD INVX1_LOC_17/Y INVX1_LOC
XINVX1_LOC_203 INVX1_LOC_203/Y VSS VDD INVX1_LOC_203/A INVX1_LOC
XNAND2X1_LOC_25 NAND2X1_LOC_25/a_36_24# INVX1_LOC_33/A VSS VDD INPUT_6 INVX1_LOC_34/Y
+ NAND2X1_LOC
XNAND2X1_LOC_14 NAND2X1_LOC_14/a_36_24# INVX1_LOC_21/A VSS VDD INVX1_LOC_22/Y INVX1_LOC_23/Y
+ NAND2X1_LOC
XINVX1_LOC_236 INVX1_LOC_492/A VSS VDD INVX1_LOC_236/A INVX1_LOC
XINVX1_LOC_258 INVX1_LOC_258/Y VSS VDD INVX1_LOC_258/A INVX1_LOC
XINVX1_LOC_247 INVX1_LOC_247/Y VSS VDD INVX1_LOC_62/Y INVX1_LOC
XINVX1_LOC_269 INVX1_LOC_269/Y VSS VDD INVX1_LOC_269/A INVX1_LOC
XNAND2X1_LOC_36 NAND2X1_LOC_36/a_36_24# INVX1_LOC_45/A VSS VDD INVX1_LOC_25/Y INVX1_LOC_29/Y
+ NAND2X1_LOC
XNAND2X1_LOC_47 NAND2X1_LOC_47/a_36_24# INVX1_LOC_53/A VSS VDD INVX1_LOC_33/Y INVX1_LOC_40/Y
+ NAND2X1_LOC
XNAND2X1_LOC_58 NAND2X1_LOC_58/a_36_24# NAND2X1_LOC_61/A VSS VDD INVX1_LOC_31/Y INVX1_LOC_54/Y
+ NAND2X1_LOC
XNAND2X1_LOC_69 NAND2X1_LOC_69/a_36_24# NAND2X1_LOC_69/Y VSS VDD INVX1_LOC_45/Y NAND2X1_LOC_69/B
+ NAND2X1_LOC
XNAND2X1_LOC_700 NAND2X1_LOC_700/a_36_24# NAND2X1_LOC_710/A VSS VDD INVX1_LOC_63/Y
+ INVX1_LOC_89/Y NAND2X1_LOC
XNAND2X1_LOC_788 NAND2X1_LOC_788/a_36_24# INVX1_LOC_618/A VSS VDD NAND2X1_LOC_788/A
+ INVX1_LOC_468/Y NAND2X1_LOC
XNAND2X1_LOC_711 NAND2X1_LOC_711/a_36_24# INVX1_LOC_554/A VSS VDD INVX1_LOC_551/Y
+ INVX1_LOC_553/Y NAND2X1_LOC
XNAND2X1_LOC_744 NAND2X1_LOC_744/a_36_24# NAND2X1_LOC_780/B VSS VDD INVX1_LOC_50/Y
+ INVX1_LOC_117/Y NAND2X1_LOC
XNAND2X1_LOC_777 NAND2X1_LOC_777/a_36_24# INVX1_LOC_605/A VSS VDD INVX1_LOC_606/Y
+ NAND2X1_LOC_307/B NAND2X1_LOC
XNAND2X1_LOC_722 NAND2X1_LOC_722/a_36_24# INVX1_LOC_565/A VSS VDD INVX1_LOC_561/Y
+ INVX1_LOC_562/Y NAND2X1_LOC
XNAND2X1_LOC_733 NAND2X1_LOC_733/a_36_24# INVX1_LOC_576/A VSS VDD INVX1_LOC_565/Y
+ INVX1_LOC_566/Y NAND2X1_LOC
XNAND2X1_LOC_755 NAND2X1_LOC_755/a_36_24# NAND2X1_LOC_791/A VSS VDD INVX1_LOC_63/Y
+ NAND2X1_LOC_755/B NAND2X1_LOC
XNAND2X1_LOC_766 NAND2X1_LOC_766/a_36_24# NAND2X1_LOC_770/B VSS VDD INVX1_LOC_69/Y
+ INVX1_LOC_89/Y NAND2X1_LOC
XNAND2X1_LOC_799 NAND2X1_LOC_799/a_36_24# INVX1_LOC_629/A VSS VDD INVX1_LOC_412/Y
+ INVX1_LOC_460/Y NAND2X1_LOC
XNAND2X1_LOC_541 NAND2X1_LOC_541/a_36_24# INVX1_LOC_414/A VSS VDD INVX1_LOC_415/Y
+ NAND2X1_LOC_541/B NAND2X1_LOC
XNAND2X1_LOC_574 NAND2X1_LOC_574/a_36_24# INVX1_LOC_448/A VSS VDD INVX1_LOC_400/Y
+ NAND2X1_LOC_516/Y NAND2X1_LOC
XNAND2X1_LOC_596 NAND2X1_LOC_596/a_36_24# NAND2X1_LOC_596/Y VSS VDD INVX1_LOC_461/Y
+ INVX1_LOC_462/Y NAND2X1_LOC
XNAND2X1_LOC_563 NAND2X1_LOC_563/a_36_24# INVX1_LOC_437/A VSS VDD INVX1_LOC_427/Y
+ INVX1_LOC_428/Y NAND2X1_LOC
XNAND2X1_LOC_585 NAND2X1_LOC_585/a_36_24# NAND2X1_LOC_637/A VSS VDD INVX1_LOC_31/Y
+ INVX1_LOC_245/A NAND2X1_LOC
XNAND2X1_LOC_552 NAND2X1_LOC_552/a_36_24# INVX1_LOC_426/A VSS VDD INVX1_LOC_416/Y
+ INVX1_LOC_417/Y NAND2X1_LOC
XNAND2X1_LOC_530 NAND2X1_LOC_530/a_36_24# NAND2X1_LOC_548/B VSS VDD INVX1_LOC_45/Y
+ INVX1_LOC_99/Y NAND2X1_LOC
XINVX1_LOC_407 INVX1_LOC_407/Y VSS VDD INVX1_LOC_99/Y INVX1_LOC
XINVX1_LOC_429 INVX1_LOC_429/Y VSS VDD INVX1_LOC_429/A INVX1_LOC
XINVX1_LOC_418 INVX1_LOC_418/Y VSS VDD INVX1_LOC_418/A INVX1_LOC
XNAND2X1_LOC_371 NAND2X1_LOC_371/a_36_24# INVX1_LOC_302/A VSS VDD INVX1_LOC_9/Y INVX1_LOC_41/Y
+ NAND2X1_LOC
XNAND2X1_LOC_382 NAND2X1_LOC_382/a_36_24# NAND2X1_LOC_391/A VSS VDD INVX1_LOC_84/A
+ INVX1_LOC_312/Y NAND2X1_LOC
XNAND2X1_LOC_360 NAND2X1_LOC_360/a_36_24# INVX1_LOC_294/A VSS VDD INVX1_LOC_211/Y
+ INVX1_LOC_281/Y NAND2X1_LOC
XNAND2X1_LOC_393 NAND2X1_LOC_393/a_36_24# NAND2X1_LOC_393/Y VSS VDD INVX1_LOC_47/Y
+ INVX1_LOC_48/Y NAND2X1_LOC
XINVX1_LOC_237 INVX1_LOC_237/Y VSS VDD INVX1_LOC_66/A INVX1_LOC
XINVX1_LOC_215 INVX1_LOC_215/Y VSS VDD INVX1_LOC_32/Y INVX1_LOC
XINVX1_LOC_259 INVX1_LOC_259/Y VSS VDD INVX1_LOC_259/A INVX1_LOC
XINVX1_LOC_248 INVX1_LOC_248/Y VSS VDD INVX1_LOC_248/A INVX1_LOC
XINVX1_LOC_226 INVX1_LOC_226/Y VSS VDD INVX1_LOC_80/A INVX1_LOC
XINVX1_LOC_204 INVX1_LOC_204/Y VSS VDD INVX1_LOC_204/A INVX1_LOC
XNAND2X1_LOC_15 NAND2X1_LOC_15/a_36_24# INVX1_LOC_24/A VSS VDD INVX1_LOC_66/A INVX1_LOC_21/Y
+ NAND2X1_LOC
XNAND2X1_LOC_26 NAND2X1_LOC_26/a_36_24# INVX1_LOC_35/A VSS VDD INVX1_LOC_29/Y INVX1_LOC_33/Y
+ NAND2X1_LOC
XNAND2X1_LOC_59 NAND2X1_LOC_59/a_36_24# INVX1_LOC_63/A VSS VDD INVX1_LOC_18/Y INVX1_LOC_33/Y
+ NAND2X1_LOC
XNAND2X1_LOC_48 NAND2X1_LOC_48/a_36_24# NAND2X1_LOC_48/Y VSS VDD INVX1_LOC_51/Y INVX1_LOC_53/Y
+ NAND2X1_LOC
XNAND2X1_LOC_37 NAND2X1_LOC_37/a_36_24# INVX1_LOC_46/A VSS VDD INPUT_2 INPUT_3
+ NAND2X1_LOC
XNAND2X1_LOC_190 NAND2X1_LOC_190/a_36_24# INVX1_LOC_166/A VSS VDD NAND2X1_LOC_190/A
+ NAND2X1_LOC_184/Y NAND2X1_LOC
XINVX1_LOC_590 INVX1_LOC_590/Y VSS VDD INVX1_LOC_586/A INVX1_LOC
XNAND2X1_LOC_701 NAND2X1_LOC_701/a_36_24# NAND2X1_LOC_710/B VSS VDD INVX1_LOC_50/Y
+ INVX1_LOC_206/Y NAND2X1_LOC
XNAND2X1_LOC_778 NAND2X1_LOC_778/a_36_24# INVX1_LOC_607/A VSS VDD INVX1_LOC_608/Y
+ NAND2X1_LOC_496/Y NAND2X1_LOC
XNAND2X1_LOC_745 NAND2X1_LOC_745/a_36_24# NAND2X1_LOC_781/A VSS VDD INVX1_LOC_48/Y
+ INVX1_LOC_586/A NAND2X1_LOC
XNAND2X1_LOC_712 NAND2X1_LOC_712/a_36_24# INVX1_LOC_555/A VSS VDD INVX1_LOC_549/Y
+ INVX1_LOC_550/Y NAND2X1_LOC
XNAND2X1_LOC_723 NAND2X1_LOC_723/a_36_24# INVX1_LOC_566/A VSS VDD INVX1_LOC_559/Y
+ INVX1_LOC_560/Y NAND2X1_LOC
XNAND2X1_LOC_734 NAND2X1_LOC_734/a_36_24# INVX1_LOC_577/A VSS VDD NAND2X1_LOC_475/A
+ INVX1_LOC_564/Y NAND2X1_LOC
XNAND2X1_LOC_756 NAND2X1_LOC_756/a_36_24# NAND2X1_LOC_756/Y VSS VDD INVX1_LOC_589/Y
+ INVX1_LOC_590/Y NAND2X1_LOC
XNAND2X1_LOC_767 NAND2X1_LOC_767/a_36_24# NAND2X1_LOC_773/A VSS VDD INVX1_LOC_6/Y
+ NAND2X1_LOC_79/B NAND2X1_LOC
XNAND2X1_LOC_789 NAND2X1_LOC_789/a_36_24# INVX1_LOC_619/A VSS VDD NAND2X1_LOC_789/A
+ NAND2X1_LOC_789/B NAND2X1_LOC
XNAND2X1_LOC_520 NAND2X1_LOC_520/a_36_24# INVX1_LOC_405/A VSS VDD NAND2X1_LOC_520/A
+ NAND2X1_LOC_520/B NAND2X1_LOC
XNAND2X1_LOC_586 NAND2X1_LOC_586/a_36_24# NAND2X1_LOC_586/Y VSS VDD INVX1_LOC_74/Y
+ INVX1_LOC_119/Y NAND2X1_LOC
XNAND2X1_LOC_575 NAND2X1_LOC_575/a_36_24# INVX1_LOC_449/A VSS VDD INVX1_LOC_447/Y
+ INVX1_LOC_448/Y NAND2X1_LOC
XNAND2X1_LOC_597 NAND2X1_LOC_597/a_36_24# NAND2X1_LOC_597/Y VSS VDD INVX1_LOC_17/Y
+ NAND2X1_LOC_596/Y NAND2X1_LOC
XNAND2X1_LOC_553 NAND2X1_LOC_553/a_36_24# INVX1_LOC_427/A VSS VDD INVX1_LOC_413/Y
+ INVX1_LOC_414/Y NAND2X1_LOC
XNAND2X1_LOC_542 NAND2X1_LOC_542/a_36_24# INVX1_LOC_416/A VSS VDD NAND2X1_LOC_542/A
+ NAND2X1_LOC_336/B NAND2X1_LOC
XNAND2X1_LOC_564 NAND2X1_LOC_564/a_36_24# INVX1_LOC_438/A VSS VDD INVX1_LOC_425/Y
+ INVX1_LOC_426/Y NAND2X1_LOC
XNAND2X1_LOC_531 NAND2X1_LOC_531/a_36_24# NAND2X1_LOC_531/Y VSS VDD INVX1_LOC_48/Y
+ INVX1_LOC_76/Y NAND2X1_LOC
XINVX1_LOC_408 INVX1_LOC_408/Y VSS VDD INVX1_LOC_117/Y INVX1_LOC
XINVX1_LOC_419 INVX1_LOC_419/Y VSS VDD INVX1_LOC_419/A INVX1_LOC
XNAND2X1_LOC_372 NAND2X1_LOC_372/a_36_24# NAND2X1_LOC_372/Y VSS VDD INVX1_LOC_303/Y
+ INVX1_LOC_608/A NAND2X1_LOC
XNAND2X1_LOC_361 NAND2X1_LOC_361/a_36_24# INVX1_LOC_295/A VSS VDD INVX1_LOC_230/Y
+ INVX1_LOC_235/Y NAND2X1_LOC
XNAND2X1_LOC_350 NAND2X1_LOC_350/a_36_24# INVX1_LOC_284/A VSS VDD INVX1_LOC_274/Y
+ INVX1_LOC_275/Y NAND2X1_LOC
XNAND2X1_LOC_383 NAND2X1_LOC_383/a_36_24# NAND2X1_LOC_383/Y VSS VDD INVX1_LOC_313/Y
+ INVX1_LOC_314/Y NAND2X1_LOC
XNAND2X1_LOC_394 NAND2X1_LOC_394/a_36_24# NAND2X1_LOC_400/B VSS VDD INVX1_LOC_53/Y
+ INVX1_LOC_117/Y NAND2X1_LOC
XINVX1_LOC_238 INVX1_LOC_238/Y VSS VDD INVX1_LOC_238/A INVX1_LOC
XINVX1_LOC_216 INVX1_LOC_216/Y VSS VDD INVX1_LOC_47/Y INVX1_LOC
XINVX1_LOC_249 INVX1_LOC_249/Y VSS VDD INVX1_LOC_249/A INVX1_LOC
XINVX1_LOC_227 INVX1_LOC_227/Y VSS VDD INVX1_LOC_224/Y INVX1_LOC
XINVX1_LOC_205 INVX1_LOC_205/Y VSS VDD INVX1_LOC_65/Y INVX1_LOC
XNAND2X1_LOC_191 NAND2X1_LOC_191/a_36_24# INVX1_LOC_167/A VSS VDD NAND2X1_LOC_187/Y
+ INVX1_LOC_166/Y NAND2X1_LOC
XNAND2X1_LOC_180 NAND2X1_LOC_180/a_36_24# INVX1_LOC_158/A VSS VDD NAND2X1_LOC_176/Y
+ NAND2X1_LOC_180/B NAND2X1_LOC
XNAND2X1_LOC_16 NAND2X1_LOC_16/a_36_24# NAND2X1_LOC_16/Y VSS VDD INVX1_LOC_6/Y INVX1_LOC_79/A
+ NAND2X1_LOC
XNAND2X1_LOC_38 NAND2X1_LOC_38/a_36_24# INVX1_LOC_47/A VSS VDD INVX1_LOC_84/A INVX1_LOC_46/Y
+ NAND2X1_LOC
XNAND2X1_LOC_27 NAND2X1_LOC_27/a_36_24# NAND2X1_LOC_27/Y VSS VDD INVX1_LOC_11/Y INVX1_LOC_35/Y
+ NAND2X1_LOC
XNAND2X1_LOC_49 NAND2X1_LOC_49/a_36_24# INVX1_LOC_54/A VSS VDD INVX1_LOC_21/Y INVX1_LOC_84/A
+ NAND2X1_LOC
XINVX1_LOC_580 INVX1_LOC_580/Y VSS VDD INVX1_LOC_580/A INVX1_LOC
XINVX1_LOC_591 INVX1_LOC_591/Y VSS VDD INVX1_LOC_48/Y INVX1_LOC
XNAND2X1_LOC_702 NAND2X1_LOC_702/a_36_24# INVX1_LOC_544/A VSS VDD NAND2X1_LOC_45/Y
+ NAND2X1_LOC_332/B NAND2X1_LOC
XNAND2X1_LOC_724 NAND2X1_LOC_724/a_36_24# INVX1_LOC_567/A VSS VDD INVX1_LOC_557/Y
+ INVX1_LOC_558/Y NAND2X1_LOC
XNAND2X1_LOC_713 NAND2X1_LOC_713/a_36_24# INVX1_LOC_556/A VSS VDD INVX1_LOC_547/Y
+ INVX1_LOC_548/Y NAND2X1_LOC
XNAND2X1_LOC_768 NAND2X1_LOC_768/a_36_24# INVX1_LOC_596/A VSS VDD NAND2X1_LOC_768/A
+ NAND2X1_LOC_768/B NAND2X1_LOC
XNAND2X1_LOC_779 NAND2X1_LOC_779/a_36_24# INVX1_LOC_609/A VSS VDD NAND2X1_LOC_513/A
+ NAND2X1_LOC_697/Y NAND2X1_LOC
XNAND2X1_LOC_746 NAND2X1_LOC_746/a_36_24# NAND2X1_LOC_781/B VSS VDD INVX1_LOC_76/Y
+ INVX1_LOC_145/Y NAND2X1_LOC
XNAND2X1_LOC_735 NAND2X1_LOC_735/a_36_24# INVX1_LOC_578/A VSS VDD INVX1_LOC_393/Y
+ INVX1_LOC_490/Y NAND2X1_LOC
XNAND2X1_LOC_757 NAND2X1_LOC_757/a_36_24# NAND2X1_LOC_791/B VSS VDD INVX1_LOC_50/Y
+ NAND2X1_LOC_756/Y NAND2X1_LOC
XNAND2X1_LOC_521 NAND2X1_LOC_521/a_36_24# NAND2X1_LOC_521/Y VSS VDD INVX1_LOC_26/Y
+ INVX1_LOC_54/Y NAND2X1_LOC
XNAND2X1_LOC_554 NAND2X1_LOC_554/a_36_24# INVX1_LOC_428/A VSS VDD NAND2X1_LOC_106/Y
+ INVX1_LOC_118/Y NAND2X1_LOC
XNAND2X1_LOC_532 NAND2X1_LOC_532/a_36_24# NAND2X1_LOC_532/Y VSS VDD INVX1_LOC_407/Y
+ INVX1_LOC_408/Y NAND2X1_LOC
XNAND2X1_LOC_543 NAND2X1_LOC_543/a_36_24# INVX1_LOC_417/A VSS VDD NAND2X1_LOC_318/A
+ NAND2X1_LOC_543/B NAND2X1_LOC
XNAND2X1_LOC_510 NAND2X1_LOC_510/a_36_24# INVX1_LOC_400/A VSS VDD INVX1_LOC_398/Y
+ INVX1_LOC_399/Y NAND2X1_LOC
XNAND2X1_LOC_598 NAND2X1_LOC_598/a_36_24# INVX1_LOC_463/A VSS VDD INVX1_LOC_464/Y
+ INVX1_LOC_465/Y NAND2X1_LOC
XNAND2X1_LOC_576 NAND2X1_LOC_576/a_36_24# INVX1_LOC_450/A VSS VDD INVX1_LOC_445/Y
+ INVX1_LOC_446/Y NAND2X1_LOC
XNAND2X1_LOC_565 NAND2X1_LOC_565/a_36_24# INVX1_LOC_439/A VSS VDD INVX1_LOC_423/Y
+ INVX1_LOC_424/Y NAND2X1_LOC
XNAND2X1_LOC_587 NAND2X1_LOC_587/a_36_24# INVX1_LOC_455/A VSS VDD INVX1_LOC_456/Y
+ INVX1_LOC_40/Y NAND2X1_LOC
XINVX1_LOC_409 INVX1_LOC_409/Y VSS VDD INVX1_LOC_409/A INVX1_LOC
XNAND2X1_LOC_373 NAND2X1_LOC_373/a_36_24# NAND2X1_LOC_373/Y VSS VDD INVX1_LOC_35/Y
+ INVX1_LOC_80/A NAND2X1_LOC
XNAND2X1_LOC_362 NAND2X1_LOC_362/a_36_24# INVX1_LOC_296/A VSS VDD INVX1_LOC_242/Y
+ INVX1_LOC_295/Y NAND2X1_LOC
XNAND2X1_LOC_384 NAND2X1_LOC_384/a_36_24# NAND2X1_LOC_391/B VSS VDD INVX1_LOC_48/Y
+ NAND2X1_LOC_383/Y NAND2X1_LOC
XNAND2X1_LOC_351 NAND2X1_LOC_351/a_36_24# INVX1_LOC_285/A VSS VDD INVX1_LOC_272/Y
+ INVX1_LOC_273/Y NAND2X1_LOC
XNAND2X1_LOC_340 NAND2X1_LOC_340/a_36_24# INVX1_LOC_274/A VSS VDD NAND2X1_LOC_88/Y
+ INVX1_LOC_201/Y NAND2X1_LOC
XNAND2X1_LOC_395 NAND2X1_LOC_395/a_36_24# NAND2X1_LOC_395/Y VSS VDD INVX1_LOC_63/Y
+ INVX1_LOC_100/Y NAND2X1_LOC
XINVX1_LOC_239 INVX1_LOC_239/Y VSS VDD INVX1_LOC_239/A INVX1_LOC
XINVX1_LOC_217 INVX1_LOC_217/Y VSS VDD INVX1_LOC_217/A INVX1_LOC
XINVX1_LOC_228 INVX1_LOC_228/Y VSS VDD INVX1_LOC_228/A INVX1_LOC
XINVX1_LOC_206 INVX1_LOC_206/Y VSS VDD INVX1_LOC_206/A INVX1_LOC
XNAND2X1_LOC_192 NAND2X1_LOC_192/a_36_24# INVX1_LOC_168/A VSS VDD NAND2X1_LOC_192/A
+ INVX1_LOC_167/Y NAND2X1_LOC
XNAND2X1_LOC_181 NAND2X1_LOC_181/a_36_24# INVX1_LOC_159/A VSS VDD NAND2X1_LOC_181/A
+ NAND2X1_LOC_179/Y NAND2X1_LOC
XNAND2X1_LOC_170 NAND2X1_LOC_170/a_36_24# INVX1_LOC_155/A VSS VDD INVX1_LOC_153/Y
+ INVX1_LOC_154/Y NAND2X1_LOC
XNAND2X1_LOC_28 NAND2X1_LOC_28/a_36_24# INVX1_LOC_36/A VSS VDD INVX1_LOC_37/Y INPUT_1
+ NAND2X1_LOC
XNAND2X1_LOC_39 NAND2X1_LOC_39/a_36_24# NAND2X1_LOC_39/Y VSS VDD INVX1_LOC_45/Y INVX1_LOC_47/Y
+ NAND2X1_LOC
XNAND2X1_LOC_17 NAND2X1_LOC_17/a_36_24# INVX1_LOC_25/A VSS VDD INPUT_6 INPUT_7
+ NAND2X1_LOC
XINVX1_LOC_581 INVX1_LOC_581/Y VSS VDD INVX1_LOC_581/A INVX1_LOC
XINVX1_LOC_570 INVX1_LOC_570/Y VSS VDD INVX1_LOC_570/A INVX1_LOC
XINVX1_LOC_592 INVX1_LOC_592/Y VSS VDD INVX1_LOC_93/Y INVX1_LOC
XNAND2X1_LOC_714 NAND2X1_LOC_714/a_36_24# INVX1_LOC_557/A VSS VDD INVX1_LOC_545/Y
+ INVX1_LOC_546/Y NAND2X1_LOC
XNAND2X1_LOC_725 NAND2X1_LOC_725/a_36_24# INVX1_LOC_568/A VSS VDD INVX1_LOC_555/Y
+ INVX1_LOC_556/Y NAND2X1_LOC
XNAND2X1_LOC_736 NAND2X1_LOC_736/a_36_24# INVX1_LOC_579/A VSS VDD INVX1_LOC_533/Y
+ INVX1_LOC_578/Y NAND2X1_LOC
XNAND2X1_LOC_703 NAND2X1_LOC_703/a_36_24# INVX1_LOC_545/A VSS VDD NAND2X1_LOC_388/A
+ NAND2X1_LOC_336/B NAND2X1_LOC