Version 4
SHEET 1 3696 928
WIRE -1040 -176 -1120 -176
WIRE -976 -176 -1040 -176
WIRE -832 -176 -896 -176
WIRE -784 -176 -832 -176
WIRE -656 -176 -704 -176
WIRE -608 -176 -656 -176
WIRE -480 -176 -528 -176
WIRE -416 -176 -480 -176
WIRE -272 -176 -336 -176
WIRE -1040 -144 -1040 -176
WIRE -832 -144 -832 -176
WIRE -656 -144 -656 -176
WIRE -480 -144 -480 -176
WIRE 384 -96 240 -96
WIRE 896 -96 384 -96
WIRE -1040 -48 -1040 -80
WIRE -1040 -48 -1120 -48
WIRE -832 -48 -832 -80
WIRE -832 -48 -1040 -48
WIRE -656 -48 -656 -80
WIRE -656 -48 -832 -48
WIRE -480 -48 -480 -80
WIRE -480 -48 -656 -48
WIRE -272 -48 -272 -176
WIRE -272 -48 -480 -48
WIRE 240 32 240 -96
WIRE -880 80 -1184 80
WIRE 64 80 -800 80
WIRE 160 80 64 80
WIRE 448 80 320 80
WIRE 624 80 448 80
WIRE -464 112 -736 112
WIRE 64 112 -384 112
WIRE 160 112 64 112
WIRE 400 112 320 112
WIRE 448 112 400 112
WIRE 64 144 -336 144
WIRE 160 144 64 144
WIRE 400 144 320 144
WIRE 448 144 400 144
WIRE 80 176 -128 176
WIRE 160 176 80 176
WIRE 896 176 896 -96
WIRE 624 352 624 80
WIRE -336 480 -336 144
WIRE -128 480 -128 176
WIRE -1184 496 -1184 80
WIRE -736 496 -736 112
WIRE -1184 704 -1184 576
WIRE -736 704 -736 576
WIRE -736 704 -1184 704
WIRE -336 704 -336 560
WIRE -336 704 -736 704
WIRE -128 704 -128 560
WIRE -128 704 -336 704
WIRE 240 704 240 224
WIRE 240 704 -128 704
WIRE 624 704 624 432
WIRE 624 704 240 704
WIRE 896 704 896 256
WIRE 896 704 624 704
WIRE 240 768 240 704
FLAG 240 768 0
FLAG 64 80 IN0
FLAG 64 112 DEN
FLAG 64 144 IS
FLAG 80 176 TAMB
FLAG 384 -96 VS
FLAG 448 80 OUT0
FLAG 400 112 TJ0
FLAG -1120 -176 TCASE
FLAG -1120 -48 TAMB
FLAG 400 144 TCASE
SYMBOL voltage -1184 480 R0
WINDOW 3 -127 121 Left 2
WINDOW 123 0 0 Left 2
WINDOW 39 0 0 Left 2
SYMATTR Value PULSE(0 5 30u 1u 1u 5m 10m)
SYMATTR InstName V_IN0
SYMBOL voltage 896 160 R0
WINDOW 123 0 0 Left 2
WINDOW 39 0 0 Left 2
WINDOW 3 24 96 Left 1
SYMATTR Value PWL(0 0 10u 0 20u {VBAT})
SYMATTR InstName V_VS
SYMBOL voltage -128 464 R0
WINDOW 123 0 0 Left 2
WINDOW 39 0 0 Left 2
SYMATTR InstName V_TAMB
SYMATTR Value PWL(0 0 1u 0 6u {Tamb} )
SYMBOL res 608 336 R0
SYMATTR InstName ROUT0
SYMATTR Value {RL}
SYMBOL res -784 64 R90
WINDOW 0 61 94 VBottom 2
WINDOW 3 36 22 VTop 2
SYMATTR InstName R_IN0
SYMATTR Value 4.7k
SYMBOL voltage -736 480 R0
WINDOW 3 -127 121 Left 2
WINDOW 123 0 0 Left 2
WINDOW 39 0 0 Left 2
SYMATTR Value PULSE(0 5 27m 1u 1u 400u 10m)
SYMATTR InstName V_DEN
SYMBOL res -368 96 R90
WINDOW 0 60 115 VBottom 2
WINDOW 3 33 27 VTop 2
SYMATTR InstName R_DEN
SYMATTR Value 4.7k
SYMBOL res -352 464 R0
SYMATTR InstName R_IS
SYMATTR Value 1.2k
SYMBOL cap -1056 -144 R0
SYMATTR InstName Cth1
SYMATTR Value 10m
SYMBOL cap -848 -144 R0
SYMATTR InstName Cth2
SYMATTR Value 10m
SYMBOL cap -672 -144 R0
SYMATTR InstName Cth3
SYMATTR Value 10m
SYMBOL cap -496 -144 R0
SYMATTR InstName Cth4
SYMATTR Value 10m
SYMBOL res -880 -192 R90
WINDOW 0 0 56 VBottom 2
WINDOW 3 32 56 VTop 2
SYMATTR InstName Rth1
SYMATTR Value 7.5
SYMBOL res -688 -192 R90
WINDOW 0 0 56 VBottom 2
WINDOW 3 32 56 VTop 2
SYMATTR InstName Rth2
SYMATTR Value 7.5
SYMBOL res -512 -192 R90
WINDOW 0 0 56 VBottom 2
WINDOW 3 32 56 VTop 2
SYMATTR InstName Rth3
SYMATTR Value 7.5
SYMBOL res -320 -192 R90
WINDOW 0 0 56 VBottom 2
WINDOW 3 32 56 VTop 2
SYMATTR InstName Rth4
SYMATTR Value 7.5
SYMBOL BTS7040_1EPZ_encrypted 240 128 R0
SYMATTR InstName U1
TEXT 528 -768 Left 2 !.tran 0 30m 10u 5u
TEXT 528 -736 Left 2 !.option abstol=1n RELTOL=1m
TEXT 528 -704 Left 2 !.param RL=3.3\n.param VBAT=13.5\n.param Tamb=25\n.param thermal_model=4
TEXT 528 -824 Left 5 ;Simulation options
TEXT -1192 -824 Left 5 ;APPLICATION TESTBENCH (SWITCHING RESISTIVE LOADS)
TEXT -1192 -760 Left 2 ;This generic test-bench is switching resistive loads and can be used as a starting\npoint for different configurations\nThe additional circuitry is inspired from  Application Diagram from datasheet\n \nSimulation model contains 4 Junction to Ambient thermal networks associated to different\ntypes JEDEC standards and 1 junction to package thermal network that allows external heat\nsink connection.\n \nTo choose a certain thermal model, change the value of THERMAL_MODEL  parameter\n \nTHERMAL_MODEL=1: P=1W; T=85°C; PCB type: 1s0p 600mm2\nTHERMAL_MODEL=2: P=1W; T=85°C; PCB type: 1s0p 300mm2\nTHERMAL_MODEL=3: P=1W; T=85°C; PCB type: footprint\nTHERMAL_MODEL=4: P=1W; T=85°C; PCB type: 2s2p\nTHERMAL_MODEL=5: P=1W; T=85°C; Junction to Package  - connect external heat sink\nbetween Tcase and TAMB\n \nThe Ambient temperature of the entire chip can be set by connecting a voltage source to TAMB \ninput pin.
